  
       XFOIL         Version 6.99
  
 Calculated polar for: NACA 0010                                       
  
 1 1 Reynolds number fixed          Mach number fixed         
  
 xtrf =   1.000 (top)        1.000 (bottom)  
 Mach =   0.000     Re =     6.271 e 6     Ncrit =   9.000
  
   alpha    CL        CD       CDp       CM     Top_Xtr  Bot_Xtr
  ------ -------- --------- --------- -------- -------- --------
  -3.000  -0.3351   0.00542   0.00100   0.0002   0.7350   0.1143
  -2.900  -0.3241   0.00535   0.00096   0.0002   0.7260   0.1252
  -2.800  -0.3129   0.00535   0.00094   0.0002   0.7142   0.1293
  -2.700  -0.3018   0.00530   0.00090   0.0002   0.7048   0.1395
  -2.600  -0.2907   0.00529   0.00088   0.0002   0.6934   0.1450
  -2.500  -0.2796   0.00523   0.00084   0.0002   0.6835   0.1581
  -2.400  -0.2684   0.00522   0.00082   0.0002   0.6727   0.1646
  -2.300  -0.2574   0.00518   0.00079   0.0002   0.6619   0.1760
  -2.200  -0.2461   0.00517   0.00077   0.0002   0.6514   0.1815
  -2.100  -0.2350   0.00514   0.00075   0.0002   0.6401   0.1926
  -2.000  -0.2238   0.00511   0.00073   0.0002   0.6309   0.2028
  -1.900  -0.2128   0.00507   0.00070   0.0002   0.6196   0.2153
  -1.800  -0.2015   0.00506   0.00069   0.0002   0.6100   0.2221
  -1.600  -0.1792   0.00500   0.00065   0.0002   0.5883   0.2451
  -1.500  -0.1681   0.00498   0.00063   0.0002   0.5782   0.2552
  -1.400  -0.1569   0.00496   0.00062   0.0002   0.5679   0.2661
  -1.300  -0.1456   0.00495   0.00060   0.0002   0.5568   0.2738
  -1.200  -0.1345   0.00493   0.00059   0.0002   0.5455   0.2877
  -1.100  -0.1233   0.00491   0.00058   0.0001   0.5362   0.2982
  -1.000  -0.1121   0.00490   0.00057   0.0001   0.5247   0.3086
  -0.900  -0.1009   0.00488   0.00056   0.0001   0.5146   0.3188
  -0.800  -0.0897   0.00488   0.00055   0.0001   0.5030   0.3298
  -0.700  -0.0785   0.00485   0.00054   0.0001   0.4940   0.3420
  -0.600  -0.0673   0.00486   0.00054   0.0001   0.4823   0.3504
  -0.500  -0.0561   0.00484   0.00053   0.0001   0.4715   0.3620
  -0.400  -0.0448   0.00484   0.00052   0.0001   0.4611   0.3733
  -0.300  -0.0337   0.00483   0.00052   0.0001   0.4487   0.3853
  -0.200  -0.0224   0.00482   0.00052   0.0000   0.4400   0.3954
  -0.100  -0.0113   0.00483   0.00052   0.0000   0.4273   0.4060
  -0.000   0.0000   0.00481   0.00051   0.0000   0.4204   0.4185
   0.100   0.0112   0.00483   0.00052  -0.0000   0.4058   0.4275
   0.200   0.0224   0.00482   0.00052  -0.0000   0.3960   0.4394
   0.300   0.0336   0.00483   0.00052  -0.0000   0.3861   0.4499
   0.400   0.0448   0.00483   0.00052  -0.0000   0.3741   0.4612
   0.500   0.0561   0.00483   0.00053  -0.0001   0.3643   0.4717
   0.700   0.0784   0.00485   0.00054  -0.0001   0.3422   0.4940
   0.800   0.0897   0.00487   0.00055  -0.0001   0.3306   0.5030
   0.900   0.1008   0.00488   0.00056  -0.0001   0.3188   0.5151
   1.000   0.1121   0.00490   0.00057  -0.0001   0.3088   0.5246
   1.100   0.1232   0.00491   0.00058  -0.0001   0.2971   0.5369
   1.200   0.1345   0.00493   0.00059  -0.0002   0.2876   0.5454
   1.300   0.1456   0.00495   0.00060  -0.0001   0.2741   0.5566
   1.400   0.1568   0.00496   0.00062  -0.0002   0.2662   0.5681
   1.500   0.1680   0.00498   0.00063  -0.0002   0.2553   0.5773
   1.600   0.1791   0.00501   0.00065  -0.0002   0.2436   0.5890
   1.700   0.1903   0.00504   0.00067  -0.0002   0.2329   0.5977
   1.800   0.2014   0.00506   0.00069  -0.0002   0.2221   0.6099
   1.900   0.2127   0.00507   0.00070  -0.0002   0.2152   0.6189
   2.000   0.2238   0.00510   0.00073  -0.0002   0.2038   0.6313
   2.100   0.2350   0.00514   0.00075  -0.0002   0.1931   0.6403
   2.200   0.2460   0.00516   0.00077  -0.0002   0.1816   0.6531
   2.300   0.2573   0.00518   0.00079  -0.0002   0.1758   0.6620
   2.400   0.2684   0.00522   0.00082  -0.0002   0.1637   0.6733
   2.500   0.2796   0.00523   0.00084  -0.0002   0.1583   0.6831
   2.600   0.2906   0.00529   0.00087  -0.0002   0.1455   0.6939
   2.700   0.3018   0.00531   0.00090  -0.0002   0.1394   0.7037
   2.800   0.3129   0.00535   0.00093  -0.0002   0.1295   0.7134
   2.900   0.3241   0.00535   0.00096  -0.0002   0.1250   0.7263
   3.000   0.3351   0.00542   0.00100  -0.0001   0.1147   0.7347
   3.100   0.3463   0.00543   0.00102  -0.0001   0.1086   0.7464
   3.200   0.3573   0.00548   0.00106  -0.0001   0.1017   0.7562
   3.300   0.3684   0.00551   0.00109  -0.0001   0.0939   0.7667
   3.400   0.3796   0.00552   0.00113  -0.0001   0.0910   0.7761
   3.500   0.3906   0.00557   0.00116  -0.0001   0.0852   0.7868
   3.600   0.4017   0.00560   0.00120  -0.0000   0.0778   0.7961
   3.700   0.4129   0.00562   0.00123  -0.0000   0.0751   0.8061
   3.800   0.4238   0.00568   0.00128   0.0000   0.0688   0.8156
   3.900   0.4349   0.00571   0.00132   0.0000   0.0631   0.8253
   4.000   0.4461   0.00573   0.00135   0.0001   0.0617   0.8340
   4.100   0.4571   0.00576   0.00139   0.0001   0.0586   0.8432
   4.200   0.4681   0.00581   0.00144   0.0001   0.0545   0.8520
   4.300   0.4791   0.00584   0.00148   0.0002   0.0502   0.8610
   4.400   0.4903   0.00587   0.00152   0.0002   0.0490   0.8678
   4.500   0.5012   0.00589   0.00156   0.0003   0.0471   0.8778
   4.600   0.5121   0.00596   0.00162   0.0003   0.0433   0.8848
   4.700   0.5230   0.00600   0.00166   0.0004   0.0394   0.8929
   4.800   0.5340   0.00602   0.00170   0.0005   0.0385   0.9003
   4.900   0.5451   0.00606   0.00175   0.0005   0.0374   0.9057
   5.000   0.5558   0.00610   0.00180   0.0006   0.0356   0.9136
   5.100   0.5667   0.00616   0.00185   0.0007   0.0335   0.9202
   5.200   0.5777   0.00621   0.00190   0.0008   0.0311   0.9248
   5.300   0.5884   0.00624   0.00195   0.0009   0.0301   0.9319
   5.400   0.5992   0.00628   0.00200   0.0010   0.0296   0.9377
   5.500   0.6102   0.00633   0.00205   0.0010   0.0286   0.9421
   5.600   0.6209   0.00638   0.00210   0.0012   0.0274   0.9471
   5.700   0.6313   0.00644   0.00216   0.0014   0.0259   0.9529
   5.800   0.6420   0.00650   0.00222   0.0015   0.0237   0.9574
   5.900   0.6529   0.00655   0.00227   0.0015   0.0231   0.9607
   6.000   0.6636   0.00660   0.00232   0.0016   0.0228   0.9646
   6.100   0.6741   0.00664   0.00237   0.0018   0.0223   0.9691
   6.200   0.6847   0.00670   0.00242   0.0020   0.0216   0.9731
   6.300   0.6954   0.00677   0.00249   0.0021   0.0207   0.9761
   6.400   0.7061   0.00685   0.00255   0.0022   0.0195   0.9784
   6.500   0.7173   0.00692   0.00262   0.0022   0.0183   0.9812
   6.600   0.7287   0.00698   0.00268   0.0021   0.0177   0.9836
   6.700   0.7403   0.00703   0.00273   0.0020   0.0176   0.9859
   6.800   0.7517   0.00709   0.00278   0.0020   0.0174   0.9880
   6.900   0.7630   0.00715   0.00284   0.0019   0.0171   0.9900
   7.000   0.7738   0.00721   0.00290   0.0020   0.0166   0.9917
   7.100   0.7853   0.00729   0.00297   0.0019   0.0161   0.9929
   7.200   0.7979   0.00738   0.00304   0.0016   0.0155   0.9936
   7.300   0.8104   0.00746   0.00312   0.0012   0.0147   0.9943
   7.400   0.8229   0.00755   0.00320   0.0009   0.0139   0.9949
   7.500   0.8354   0.00764   0.00329   0.0006   0.0133   0.9955
   7.600   0.8479   0.00770   0.00335   0.0003   0.0132   0.9960
   7.700   0.8604   0.00777   0.00341  -0.0001   0.0132   0.9965
   7.800   0.8729   0.00784   0.00348  -0.0004   0.0130   0.9969
   7.900   0.8852   0.00791   0.00355  -0.0007   0.0128   0.9973
   8.000   0.8975   0.00799   0.00362  -0.0010   0.0126   0.9977
   8.100   0.9098   0.00807   0.00370  -0.0012   0.0122   0.9982
   8.200   0.9219   0.00816   0.00378  -0.0015   0.0119   0.9985
   8.300   0.9341   0.00826   0.00387  -0.0018   0.0116   0.9989
   8.400   0.9462   0.00836   0.00396  -0.0020   0.0111   0.9992
   8.500   0.9583   0.00846   0.00406  -0.0023   0.0106   0.9995
   8.600   0.9703   0.00857   0.00416  -0.0025   0.0101   0.9997
   8.700   0.9824   0.00868   0.00428  -0.0028   0.0098   0.9999
   8.800   0.9933   0.00875   0.00435  -0.0028   0.0097   1.0000
   8.900   1.0030   0.00882   0.00442  -0.0025   0.0097   1.0000
   9.000   1.0127   0.00889   0.00449  -0.0022   0.0097   1.0000
   9.100   1.0224   0.00897   0.00457  -0.0019   0.0096   1.0000
   9.200   1.0323   0.00905   0.00465  -0.0017   0.0096   1.0000
   9.300   1.0421   0.00913   0.00473  -0.0014   0.0095   1.0000
   9.400   1.0520   0.00921   0.00481  -0.0012   0.0094   1.0000
   9.500   1.0619   0.00929   0.00489  -0.0009   0.0093   1.0000
   9.600   1.0718   0.00938   0.00498  -0.0007   0.0092   1.0000
   9.700   1.0818   0.00947   0.00507  -0.0005   0.0090   1.0000
   9.800   1.0919   0.00957   0.00517  -0.0003   0.0089   1.0000
   9.900   1.1020   0.00967   0.00527  -0.0002   0.0088   1.0000
  10.000   1.1121   0.00977   0.00537   0.0000   0.0086   1.0000
  10.100   1.1222   0.00988   0.00548   0.0002   0.0084   1.0000
  10.200   1.1323   0.00999   0.00559   0.0003   0.0082   1.0000
  10.300   1.1424   0.01011   0.00570   0.0005   0.0081   1.0000
  10.400   1.1525   0.01023   0.00582   0.0007   0.0078   1.0000
  10.500   1.1626   0.01035   0.00595   0.0008   0.0076   1.0000
  10.600   1.1726   0.01048   0.00608   0.0010   0.0074   1.0000
  10.700   1.1826   0.01062   0.00623   0.0011   0.0071   1.0000
  10.800   1.1925   0.01078   0.00640   0.0013   0.0069   1.0000
  10.900   1.2027   0.01088   0.00651   0.0014   0.0068   1.0000
  11.000   1.2130   0.01098   0.00661   0.0016   0.0068   1.0000
  11.100   1.2232   0.01108   0.00672   0.0017   0.0068   1.0000
  11.200   1.2335   0.01118   0.00682   0.0018   0.0068   1.0000
  11.300   1.2437   0.01129   0.00692   0.0019   0.0068   1.0000
  11.400   1.2540   0.01139   0.00702   0.0020   0.0068   1.0000
  11.500   1.2642   0.01149   0.00713   0.0021   0.0067   1.0000
  11.600   1.2743   0.01160   0.00724   0.0022   0.0067   1.0000
  11.700   1.2844   0.01171   0.00736   0.0024   0.0067   1.0000
  11.800   1.2945   0.01183   0.00748   0.0025   0.0066   1.0000
  11.900   1.3046   0.01195   0.00760   0.0026   0.0066   1.0000
  12.000   1.3146   0.01207   0.00772   0.0027   0.0065   1.0000
  12.100   1.3246   0.01219   0.00785   0.0029   0.0065   1.0000
  12.200   1.3345   0.01232   0.00798   0.0030   0.0064   1.0000
  12.300   1.3444   0.01245   0.00812   0.0032   0.0063   1.0000
  12.400   1.3543   0.01259   0.00826   0.0033   0.0063   1.0000
  12.500   1.3641   0.01273   0.00840   0.0035   0.0062   1.0000
  12.600   1.3738   0.01287   0.00855   0.0036   0.0061   1.0000
  12.700   1.3835   0.01302   0.00870   0.0038   0.0060   1.0000
  12.800   1.3931   0.01316   0.00886   0.0040   0.0060   1.0000
  12.900   1.4027   0.01332   0.00902   0.0042   0.0059   1.0000
  13.000   1.4123   0.01348   0.00918   0.0043   0.0058   1.0000
  13.100   1.4218   0.01364   0.00934   0.0045   0.0058   1.0000
  13.200   1.4311   0.01381   0.00952   0.0047   0.0057   1.0000
  13.300   1.4405   0.01398   0.00969   0.0050   0.0056   1.0000
  13.400   1.4498   0.01415   0.00987   0.0052   0.0055   1.0000
  13.500   1.4590   0.01433   0.01006   0.0054   0.0054   1.0000
  13.600   1.4682   0.01451   0.01026   0.0056   0.0053   1.0000
  13.700   1.4773   0.01470   0.01045   0.0059   0.0052   1.0000
  13.800   1.4863   0.01489   0.01065   0.0061   0.0051   1.0000
  13.900   1.4952   0.01509   0.01086   0.0064   0.0051   1.0000
  14.000   1.5041   0.01529   0.01108   0.0066   0.0050   1.0000
  14.100   1.5128   0.01551   0.01131   0.0069   0.0049   1.0000
  14.200   1.5214   0.01572   0.01154   0.0072   0.0048   1.0000
  14.300   1.5299   0.01595   0.01179   0.0075   0.0047   1.0000
  14.400   1.5383   0.01619   0.01205   0.0078   0.0047   1.0000
  14.500   1.5464   0.01645   0.01233   0.0082   0.0046   1.0000
  14.600   1.5544   0.01671   0.01262   0.0085   0.0045   1.0000
  14.700   1.5631   0.01689   0.01281   0.0088   0.0045   1.0000
  14.800   1.5718   0.01707   0.01300   0.0091   0.0045   1.0000
  14.900   1.5804   0.01726   0.01319   0.0093   0.0045   1.0000
  15.000   1.5889   0.01744   0.01338   0.0096   0.0045   1.0000
  15.100   1.5973   0.01763   0.01358   0.0099   0.0045   1.0000
  15.200   1.6058   0.01781   0.01378   0.0102   0.0045   1.0000
  15.300   1.6141   0.01801   0.01398   0.0105   0.0045   1.0000
  15.400   1.6222   0.01821   0.01419   0.0109   0.0045   1.0000
  15.500   1.6303   0.01841   0.01440   0.0112   0.0045   1.0000
  15.600   1.6383   0.01861   0.01461   0.0115   0.0045   1.0000
  15.700   1.6462   0.01882   0.01483   0.0119   0.0045   1.0000
  15.800   1.6540   0.01902   0.01504   0.0122   0.0045   1.0000
  15.900   1.6616   0.01925   0.01528   0.0126   0.0045   1.0000
  16.000   1.6692   0.01946   0.01550   0.0130   0.0044   1.0000
  16.100   1.6766   0.01968   0.01574   0.0134   0.0044   1.0000
  16.200   1.6837   0.01992   0.01599   0.0139   0.0044   1.0000
  16.300   1.6908   0.02015   0.01623   0.0143   0.0044   1.0000
  16.400   1.6977   0.02040   0.01649   0.0148   0.0044   1.0000
  16.500   1.7044   0.02064   0.01675   0.0152   0.0044   1.0000
  16.600   1.7109   0.02089   0.01702   0.0158   0.0044   1.0000
  16.700   1.7170   0.02115   0.01729   0.0163   0.0044   1.0000
  16.800   1.7223   0.02141   0.01756   0.0170   0.0044   1.0000
  16.900   1.7267   0.02167   0.01784   0.0179   0.0043   1.0000
  17.000   1.7307   0.02195   0.01814   0.0188   0.0043   1.0000
  17.100   1.7347   0.02224   0.01844   0.0196   0.0043   1.0000
  17.200   1.7383   0.02256   0.01878   0.0205   0.0043   1.0000
  17.300   1.7421   0.02288   0.01912   0.0213   0.0043   1.0000
  17.400   1.7456   0.02322   0.01948   0.0221   0.0043   1.0000
  17.500   1.7491   0.02358   0.01985   0.0229   0.0042   1.0000
  17.600   1.7522   0.02396   0.02026   0.0237   0.0042   1.0000
  17.700   1.7553   0.02437   0.02069   0.0244   0.0042   1.0000
  17.800   1.7581   0.02480   0.02114   0.0251   0.0042   1.0000
  17.900   1.7609   0.02525   0.02160   0.0257   0.0042   1.0000
  18.000   1.7635   0.02574   0.02211   0.0264   0.0041   1.0000
  18.100   1.7658   0.02625   0.02265   0.0269   0.0041   1.0000
  18.200   1.7680   0.02679   0.02321   0.0275   0.0041   1.0000
  18.300   1.7697   0.02738   0.02383   0.0280   0.0041   1.0000
  18.400   1.7716   0.02799   0.02446   0.0285   0.0041   1.0000
  18.500   1.7732   0.02865   0.02514   0.0289   0.0040   1.0000
  18.600   1.7745   0.02935   0.02586   0.0292   0.0040   1.0000
  18.700   1.7753   0.03010   0.02664   0.0295   0.0040   1.0000
  18.800   1.7760   0.03090   0.02747   0.0298   0.0040   1.0000
  18.900   1.7765   0.03175   0.02835   0.0299   0.0040   1.0000
  19.000   1.7767   0.03267   0.02929   0.0300   0.0039   1.0000
  19.100   1.7770   0.03362   0.03027   0.0301   0.0039   1.0000
  19.200   1.7766   0.03465   0.03133   0.0300   0.0039   1.0000
  19.300   1.7757   0.03576   0.03248   0.0299   0.0039   1.0000
  19.400   1.7745   0.03695   0.03369   0.0297   0.0039   1.0000
  19.500   1.7729   0.03822   0.03500   0.0294   0.0039   1.0000
  19.600   1.7705   0.03963   0.03645   0.0290   0.0038   1.0000
  19.700   1.7686   0.04104   0.03789   0.0285   0.0038   1.0000
  19.800   1.7656   0.04261   0.03949   0.0279   0.0038   1.0000
  19.900   1.7616   0.04435   0.04127   0.0272   0.0038   1.0000
  20.000   1.7571   0.04616   0.04312   0.0264   0.0038   1.0000
