  
       XFOIL         Version 6.99
  
 Calculated polar for: NACA 0024                                       
  
 1 1 Reynolds number fixed          Mach number fixed         
  
 xtrf =   1.000 (top)        1.000 (bottom)  
 Mach =   0.000     Re =    12.543 e 6     Ncrit =   9.000
  
   alpha    CL        CD       CDp       CM     Top_Xtr  Bot_Xtr
  ------ -------- --------- --------- -------- -------- --------
  -3.000  -0.3423   0.00643   0.00177   0.0005   0.4132   0.2333
  -2.900  -0.3308   0.00641   0.00175   0.0005   0.4118   0.2373
  -2.800  -0.3198   0.00638   0.00173   0.0005   0.4092   0.2415
  -2.700  -0.3089   0.00635   0.00171   0.0006   0.4054   0.2448
  -2.600  -0.2979   0.00635   0.00170   0.0007   0.4009   0.2474
  -2.500  -0.2865   0.00635   0.00169   0.0006   0.3958   0.2490
  -2.400  -0.2749   0.00634   0.00169   0.0006   0.3905   0.2500
  -2.300  -0.2630   0.00634   0.00167   0.0005   0.3882   0.2506
  -2.200  -0.2514   0.00632   0.00166   0.0004   0.3871   0.2547
  -2.100  -0.2400   0.00629   0.00165   0.0004   0.3855   0.2593
  -2.000  -0.2289   0.00627   0.00163   0.0005   0.3825   0.2632
  -1.900  -0.2179   0.00626   0.00162   0.0005   0.3789   0.2662
  -1.800  -0.2067   0.00626   0.00161   0.0005   0.3744   0.2686
  -1.700  -0.1952   0.00626   0.00161   0.0005   0.3697   0.2700
  -1.600  -0.1835   0.00626   0.00161   0.0004   0.3647   0.2710
  -1.500  -0.1716   0.00625   0.00160   0.0003   0.3630   0.2728
  -1.400  -0.1600   0.00624   0.00159   0.0003   0.3620   0.2774
  -1.300  -0.1485   0.00622   0.00158   0.0002   0.3603   0.2813
  -1.200  -0.1375   0.00620   0.00157   0.0003   0.3574   0.2854
  -1.100  -0.1264   0.00619   0.00156   0.0003   0.3535   0.2885
  -1.000  -0.1152   0.00620   0.00156   0.0004   0.3491   0.2910
  -0.900  -0.1036   0.00621   0.00156   0.0003   0.3444   0.2921
  -0.800  -0.0918   0.00621   0.00156   0.0002   0.3396   0.2929
  -0.700  -0.0800   0.00620   0.00155   0.0001   0.3386   0.2960
  -0.600  -0.0683   0.00619   0.00155   0.0001   0.3376   0.3005
  -0.500  -0.0570   0.00617   0.00154   0.0001   0.3356   0.3050
  -0.400  -0.0459   0.00616   0.00153   0.0001   0.3326   0.3086
  -0.300  -0.0347   0.00617   0.00153   0.0001   0.3288   0.3116
  -0.200  -0.0235   0.00618   0.00154   0.0001   0.3243   0.3137
  -0.100  -0.0118   0.00619   0.00154   0.0001   0.3194   0.3149
  -0.000  -0.0000   0.00620   0.00154   0.0000   0.3156   0.3156
   0.100   0.0118   0.00619   0.00154  -0.0001   0.3149   0.3198
   0.200   0.0235   0.00618   0.00154  -0.0002   0.3137   0.3242
   0.300   0.0348   0.00617   0.00153  -0.0001   0.3116   0.3287
   0.400   0.0458   0.00616   0.00153  -0.0001   0.3085   0.3326
   0.500   0.0570   0.00617   0.00154  -0.0001   0.3048   0.3357
   0.600   0.0683   0.00619   0.00155  -0.0001   0.3007   0.3375
   0.700   0.0800   0.00621   0.00155  -0.0001   0.2958   0.3386
   0.800   0.0919   0.00621   0.00156  -0.0002   0.2929   0.3396
   0.900   0.1036   0.00621   0.00156  -0.0003   0.2921   0.3444
   1.000   0.1152   0.00620   0.00156  -0.0004   0.2907   0.3491
   1.100   0.1265   0.00619   0.00156  -0.0004   0.2887   0.3533
   1.200   0.1375   0.00620   0.00157  -0.0003   0.2855   0.3572
   1.300   0.1486   0.00622   0.00158  -0.0003   0.2818   0.3602
   1.400   0.1600   0.00624   0.00159  -0.0003   0.2773   0.3619
   1.500   0.1717   0.00625   0.00160  -0.0003   0.2729   0.3630
   1.600   0.1835   0.00626   0.00161  -0.0004   0.2710   0.3647
   1.700   0.1953   0.00626   0.00161  -0.0005   0.2701   0.3693
   1.800   0.2068   0.00626   0.00161  -0.0005   0.2686   0.3744
   1.900   0.2179   0.00626   0.00162  -0.0005   0.2662   0.3788
   2.000   0.2289   0.00627   0.00163  -0.0005   0.2632   0.3829
   2.100   0.2400   0.00629   0.00165  -0.0004   0.2592   0.3855
   2.200   0.2514   0.00632   0.00166  -0.0004   0.2549   0.3872
   2.300   0.2631   0.00634   0.00167  -0.0005   0.2506   0.3881
   2.400   0.2749   0.00634   0.00169  -0.0006   0.2500   0.3907
   2.500   0.2866   0.00635   0.00169  -0.0007   0.2490   0.3958
   2.600   0.2980   0.00635   0.00170  -0.0007   0.2475   0.4007
   2.700   0.3090   0.00635   0.00171  -0.0006   0.2449   0.4053
   2.800   0.3198   0.00638   0.00173  -0.0005   0.2414   0.4090
   2.900   0.3309   0.00641   0.00175  -0.0005   0.2373   0.4117
   3.000   0.3423   0.00644   0.00177  -0.0005   0.2329   0.4131
   3.100   0.3541   0.00645   0.00178  -0.0006   0.2307   0.4141
   3.200   0.3658   0.00646   0.00180  -0.0007   0.2299   0.4177
   3.300   0.3774   0.00647   0.00181  -0.0007   0.2289   0.4231
   3.400   0.3885   0.00647   0.00182  -0.0007   0.2269   0.4283
   3.500   0.3993   0.00649   0.00184  -0.0006   0.2239   0.4328
   3.600   0.4102   0.00653   0.00187  -0.0005   0.2205   0.4362
   3.700   0.4213   0.00656   0.00189  -0.0005   0.2166   0.4385
   3.800   0.4328   0.00658   0.00191  -0.0005   0.2126   0.4398
   3.900   0.4445   0.00660   0.00193  -0.0006   0.2118   0.4413
   4.000   0.4561   0.00661   0.00194  -0.0007   0.2110   0.4468
   4.100   0.4674   0.00662   0.00196  -0.0007   0.2097   0.4522
   4.200   0.4783   0.00664   0.00198  -0.0006   0.2073   0.4566
   4.300   0.4889   0.00668   0.00201  -0.0005   0.2039   0.4607
   4.400   0.4998   0.00671   0.00204  -0.0004   0.2005   0.4638
   4.500   0.5110   0.00674   0.00207  -0.0004   0.1966   0.4658
   4.600   0.5226   0.00677   0.00209  -0.0004   0.1945   0.4670
   4.700   0.5342   0.00678   0.00211  -0.0005   0.1939   0.4698
   4.800   0.5455   0.00680   0.00213  -0.0005   0.1929   0.4760
   4.900   0.5565   0.00681   0.00215  -0.0004   0.1911   0.4816
   5.000   0.5672   0.00684   0.00218  -0.0003   0.1887   0.4862
   5.100   0.5776   0.00689   0.00222  -0.0002   0.1852   0.4899
   5.200   0.5886   0.00693   0.00225  -0.0001   0.1819   0.4925
   5.300   0.5998   0.00696   0.00228  -0.0001   0.1785   0.4940
   5.400   0.6114   0.00698   0.00230  -0.0002   0.1778   0.4953
   5.500   0.6227   0.00700   0.00232  -0.0002   0.1770   0.5016
   5.600   0.6337   0.00702   0.00235  -0.0001   0.1757   0.5078
   5.700   0.6444   0.00704   0.00238  -0.0000   0.1738   0.5130
   5.800   0.6547   0.00709   0.00242   0.0001   0.1707   0.5169
   5.900   0.6653   0.00714   0.00246   0.0002   0.1678   0.5197
   6.000   0.6763   0.00718   0.00250   0.0003   0.1644   0.5214
   6.100   0.6876   0.00721   0.00252   0.0003   0.1628   0.5225
   6.200   0.6989   0.00724   0.00255   0.0003   0.1622   0.5268
   6.300   0.7100   0.00725   0.00258   0.0003   0.1613   0.5341
   6.400   0.7207   0.00728   0.00261   0.0004   0.1599   0.5398
   6.500   0.7310   0.00732   0.00265   0.0006   0.1576   0.5446
   6.600   0.7413   0.00737   0.00270   0.0007   0.1551   0.5478
   6.700   0.7518   0.00743   0.00275   0.0009   0.1520   0.5496
   6.800   0.7627   0.00748   0.00279   0.0009   0.1488   0.5508
   6.900   0.7738   0.00750   0.00282   0.0010   0.1483   0.5552
   7.000   0.7848   0.00752   0.00285   0.0010   0.1476   0.5621
   7.100   0.7955   0.00754   0.00288   0.0011   0.1467   0.5678
   7.200   0.8058   0.00758   0.00292   0.0013   0.1449   0.5728
   7.300   0.8161   0.00763   0.00297   0.0014   0.1430   0.5765
   7.400   0.8260   0.00771   0.00303   0.0017   0.1401   0.5784
   7.500   0.8365   0.00776   0.00308   0.0018   0.1373   0.5796
   7.600   0.8472   0.00780   0.00312   0.0019   0.1353   0.5853
   7.700   0.8580   0.00782   0.00315   0.0020   0.1348   0.5922
   7.800   0.8686   0.00785   0.00319   0.0021   0.1342   0.5978
   7.900   0.8790   0.00788   0.00323   0.0022   0.1331   0.6026
   8.000   0.8892   0.00793   0.00328   0.0024   0.1315   0.6059
   8.100   0.8991   0.00800   0.00334   0.0026   0.1297   0.6077
   8.200   0.9089   0.00807   0.00340   0.0029   0.1274   0.6102
   8.300   0.9189   0.00813   0.00345   0.0031   0.1247   0.6173
   8.400   0.9291   0.00816   0.00349   0.0032   0.1231   0.6240
   8.500   0.9395   0.00818   0.00354   0.0034   0.1226   0.6295
   8.600   0.9499   0.00822   0.00358   0.0035   0.1219   0.6336
   8.700   0.9596   0.00827   0.00363   0.0038   0.1209   0.6360
   8.800   0.9680   0.00832   0.00367   0.0043   0.1196   0.6375
   8.900   0.9750   0.00837   0.00372   0.0052   0.1182   0.6423
   9.000   0.9822   0.00842   0.00378   0.0059   0.1166   0.6499
   9.100   0.9907   0.00847   0.00384   0.0064   0.1147   0.6562
   9.200   0.9999   0.00853   0.00390   0.0068   0.1125   0.6614
   9.300   1.0097   0.00858   0.00395   0.0070   0.1117   0.6646
   9.400   1.0195   0.00863   0.00401   0.0073   0.1112   0.6666
   9.500   1.0292   0.00870   0.00408   0.0076   0.1105   0.6699
   9.600   1.0384   0.00877   0.00415   0.0079   0.1091   0.6775
   9.700   1.0473   0.00884   0.00423   0.0083   0.1077   0.6845
   9.800   1.0563   0.00892   0.00432   0.0086   0.1062   0.6897
   9.900   1.0655   0.00900   0.00440   0.0089   0.1046   0.6939
  10.000   1.0750   0.00908   0.00447   0.0092   0.1028   0.6959
  10.100   1.0848   0.00915   0.00454   0.0094   0.1014   0.6993
  10.200   1.0947   0.00920   0.00460   0.0096   0.1010   0.7077
  10.300   1.1046   0.00924   0.00467   0.0098   0.1006   0.7148
  10.400   1.1142   0.00930   0.00474   0.0101   0.0999   0.7201
  10.500   1.1231   0.00939   0.00482   0.0104   0.0987   0.7237
  10.600   1.1314   0.00950   0.00492   0.0109   0.0973   0.7258
  10.700   1.1398   0.00960   0.00503   0.0113   0.0959   0.7297
  10.800   1.1485   0.00969   0.00513   0.0117   0.0944   0.7387
  10.900   1.1575   0.00977   0.00522   0.0120   0.0926   0.7460
  11.000   1.1670   0.00984   0.00529   0.0122   0.0917   0.7512
  11.100   1.1768   0.00990   0.00537   0.0124   0.0914   0.7541
  11.200   1.1865   0.00998   0.00544   0.0126   0.0910   0.7560
  11.300   1.1960   0.01005   0.00553   0.0128   0.0905   0.7626
  11.400   1.2053   0.01013   0.00562   0.0131   0.0898   0.7708
  11.500   1.2142   0.01022   0.00572   0.0134   0.0888   0.7773
  11.600   1.2222   0.01034   0.00584   0.0138   0.0877   0.7821
  11.700   1.2298   0.01047   0.00597   0.0144   0.0863   0.7847
  11.800   1.2378   0.01060   0.00609   0.0148   0.0847   0.7880
  11.900   1.2466   0.01069   0.00620   0.0151   0.0835   0.7970
  12.000   1.2556   0.01077   0.00630   0.0154   0.0827   0.8044
  12.100   1.2649   0.01085   0.00639   0.0156   0.0824   0.8097
  12.200   1.2741   0.01094   0.00649   0.0159   0.0820   0.8129
  12.300   1.2832   0.01104   0.00659   0.0161   0.0814   0.8149
  12.400   1.2919   0.01116   0.00671   0.0164   0.0806   0.8227
  12.500   1.3003   0.01127   0.00684   0.0167   0.0798   0.8310
  12.600   1.3079   0.01140   0.00699   0.0172   0.0789   0.8373
  12.700   1.3152   0.01156   0.00714   0.0177   0.0780   0.8413
  12.800   1.3231   0.01171   0.00729   0.0181   0.0769   0.8435
  12.900   1.3313   0.01184   0.00743   0.0185   0.0756   0.8494
  13.000   1.3399   0.01195   0.00756   0.0187   0.0747   0.8576
  13.100   1.3488   0.01204   0.00767   0.0190   0.0745   0.8641
  13.200   1.3577   0.01215   0.00779   0.0192   0.0742   0.8686
  13.300   1.3665   0.01227   0.00791   0.0195   0.0739   0.8711
  13.400   1.3750   0.01239   0.00804   0.0198   0.0734   0.8753
  13.500   1.3830   0.01253   0.00819   0.0201   0.0728   0.8836
  13.600   1.3890   0.01273   0.00841   0.0208   0.0718   0.8908
  13.700   1.3958   0.01292   0.00861   0.0213   0.0710   0.8954
  13.800   1.4030   0.01311   0.00880   0.0217   0.0701   0.8982
  13.900   1.4104   0.01330   0.00899   0.0221   0.0689   0.9021
  14.000   1.4184   0.01344   0.00915   0.0224   0.0680   0.9103
  14.100   1.4263   0.01359   0.00931   0.0228   0.0671   0.9170
  14.200   1.4348   0.01372   0.00946   0.0230   0.0669   0.9215
  14.300   1.4433   0.01386   0.00960   0.0233   0.0667   0.9239
  14.400   1.4507   0.01404   0.00980   0.0236   0.0665   0.9277
  14.500   1.4572   0.01424   0.01002   0.0241   0.0662   0.9356
  14.600   1.4642   0.01443   0.01022   0.0246   0.0658   0.9414
  14.700   1.4713   0.01462   0.01042   0.0250   0.0653   0.9455
  14.800   1.4784   0.01482   0.01062   0.0254   0.0648   0.9478
  14.900   1.4850   0.01505   0.01085   0.0258   0.0640   0.9525
  15.000   1.4912   0.01525   0.01107   0.0264   0.0634   0.9594
  15.100   1.4974   0.01548   0.01130   0.0269   0.0626   0.9645
  15.200   1.5023   0.01578   0.01161   0.0275   0.0618   0.9681
  15.300   1.5081   0.01606   0.01189   0.0280   0.0609   0.9703
  15.400   1.5139   0.01628   0.01214   0.0286   0.0602   0.9769
  15.500   1.5202   0.01648   0.01235   0.0291   0.0600   0.9821
  15.600   1.5270   0.01668   0.01255   0.0295   0.0598   0.9853
  15.700   1.5340   0.01689   0.01276   0.0299   0.0596   0.9871
  15.800   1.5410   0.01711   0.01298   0.0302   0.0593   0.9882
  16.100   1.5614   0.01807   0.01394   0.0308   0.0580   0.9939
  16.200   1.5688   0.01838   0.01425   0.0308   0.0575   0.9957
  16.300   1.5758   0.01869   0.01456   0.0310   0.0569   0.9974
  16.400   1.5827   0.01899   0.01486   0.0311   0.0563   0.9993
  16.500   1.5891   0.01929   0.01515   0.0314   0.0557   1.0000
  16.600   1.5946   0.01964   0.01551   0.0318   0.0550   1.0000
  16.700   1.5987   0.02008   0.01596   0.0322   0.0544   1.0000
  16.800   1.6044   0.02044   0.01631   0.0325   0.0538   1.0000
  16.900   1.6111   0.02073   0.01661   0.0327   0.0536   1.0000
  17.000   1.6180   0.02102   0.01690   0.0329   0.0535   1.0000
  17.100   1.6249   0.02130   0.01719   0.0331   0.0533   1.0000
  17.200   1.6317   0.02159   0.01748   0.0333   0.0532   1.0000
  17.300   1.6377   0.02194   0.01783   0.0336   0.0530   1.0000
  17.400   1.6412   0.02248   0.01838   0.0339   0.0527   1.0000
  17.500   1.6464   0.02289   0.01880   0.0342   0.0524   1.0000
  17.600   1.6518   0.02329   0.01920   0.0344   0.0520   1.0000
  17.700   1.6570   0.02370   0.01961   0.0347   0.0516   1.0000
  17.800   1.6624   0.02411   0.02001   0.0349   0.0512   1.0000
  17.900   1.6672   0.02455   0.02045   0.0352   0.0507   1.0000
  18.000   1.6676   0.02533   0.02125   0.0356   0.0500   1.0000
  18.100   1.6718   0.02583   0.02175   0.0359   0.0496   1.0000
  18.200   1.6764   0.02630   0.02221   0.0362   0.0489   1.0000
  18.300   1.6814   0.02674   0.02266   0.0364   0.0482   1.0000
  18.400   1.6867   0.02716   0.02309   0.0366   0.0478   1.0000
  18.500   1.6915   0.02764   0.02357   0.0368   0.0476   1.0000
  18.600   1.6937   0.02836   0.02430   0.0370   0.0475   1.0000
  18.700   1.6985   0.02885   0.02480   0.0371   0.0474   1.0000
  18.800   1.7037   0.02931   0.02526   0.0373   0.0473   1.0000
  18.900   1.7091   0.02975   0.02571   0.0374   0.0472   1.0000
  19.000   1.7143   0.03020   0.02617   0.0375   0.0471   1.0000
  19.100   1.7193   0.03067   0.02664   0.0377   0.0469   1.0000
  19.200   1.7197   0.03158   0.02757   0.0379   0.0467   1.0000
  19.300   1.7228   0.03222   0.02822   0.0380   0.0464   1.0000
  19.400   1.7269   0.03278   0.02879   0.0382   0.0462   1.0000
  19.500   1.7307   0.03336   0.02937   0.0383   0.0459   1.0000
  19.600   1.7343   0.03395   0.02996   0.0385   0.0455   1.0000
  19.700   1.7349   0.03483   0.03085   0.0387   0.0452   1.0000
  19.800   1.7348   0.03577   0.03181   0.0388   0.0450   1.0000
  19.900   1.7371   0.03648   0.03252   0.0390   0.0446   1.0000
  20.000   1.7400   0.03714   0.03319   0.0391   0.0442   1.0000
  20.100   1.7432   0.03779   0.03384   0.0392   0.0437   1.0000
  20.200   1.7444   0.03863   0.03469   0.0393   0.0433   1.0000
  20.300   1.7424   0.03981   0.03589   0.0394   0.0429   1.0000
  20.400   1.7448   0.04055   0.03664   0.0395   0.0424   1.0000
  20.500   1.7482   0.04119   0.03729   0.0396   0.0422   1.0000
  20.600   1.7520   0.04181   0.03791   0.0396   0.0421   1.0000
  20.700   1.7558   0.04242   0.03854   0.0396   0.0420   1.0000
  20.800   1.7526   0.04376   0.03989   0.0396   0.0419   1.0000
  20.900   1.7544   0.04459   0.04074   0.0396   0.0419   1.0000
  21.000   1.7572   0.04531   0.04147   0.0397   0.0417   1.0000
  21.100   1.7603   0.04600   0.04216   0.0397   0.0416   1.0000
  21.200   1.7627   0.04673   0.04290   0.0397   0.0414   1.0000
  21.300   1.7650   0.04749   0.04367   0.0397   0.0413   1.0000
  21.400   1.7585   0.04916   0.04537   0.0397   0.0411   1.0000
  21.500   1.7594   0.05005   0.04628   0.0397   0.0409   1.0000
  21.600   1.7609   0.05089   0.04712   0.0397   0.0407   1.0000
  21.700   1.7623   0.05174   0.04798   0.0396   0.0404   1.0000
  21.800   1.7631   0.05266   0.04892   0.0396   0.0401   1.0000
  21.900   1.7543   0.05462   0.05091   0.0394   0.0400   1.0000
  22.000   1.7543   0.05563   0.05193   0.0394   0.0397   1.0000
  22.100   1.7551   0.05657   0.05287   0.0393   0.0395   1.0000
  22.200   1.7555   0.05754   0.05385   0.0392   0.0392   1.0000
  22.400   1.7451   0.06075   0.05711   0.0389   0.0387   1.0000
  22.500   1.7452   0.06175   0.05812   0.0388   0.0383   1.0000
  22.600   1.7457   0.06271   0.05909   0.0387   0.0380   1.0000
  22.700   1.7461   0.06368   0.06007   0.0385   0.0377   1.0000
  22.800   1.7353   0.06590   0.06233   0.0382   0.0375   1.0000
  22.900   1.7340   0.06710   0.06354   0.0380   0.0372   1.0000
  23.000   1.7344   0.06810   0.06455   0.0378   0.0370   1.0000
  23.100   1.7357   0.06901   0.06548   0.0377   0.0370   1.0000
  23.200   1.7368   0.06994   0.06642   0.0375   0.0369   1.0000
  23.300   1.7375   0.07092   0.06741   0.0373   0.0369   1.0000
  23.400   1.7244   0.07350   0.07003   0.0368   0.0369   1.0000
  23.500   1.7246   0.07454   0.07110   0.0366   0.0368   1.0000
  23.600   1.7252   0.07554   0.07211   0.0363   0.0367   1.0000
  23.700   1.7257   0.07654   0.07312   0.0361   0.0367   1.0000
  23.800   1.7262   0.07757   0.07416   0.0359   0.0366   1.0000
  24.000   1.7098   0.08155   0.07821   0.0349   0.0364   1.0000
  24.100   1.7094   0.08265   0.07931   0.0346   0.0363   1.0000
  24.200   1.7093   0.08373   0.08041   0.0344   0.0361   1.0000
  24.300   1.7090   0.08484   0.08153   0.0341   0.0360   1.0000
  24.400   1.7067   0.08618   0.08288   0.0337   0.0358   1.0000
  24.500   1.6897   0.08928   0.08604   0.0328   0.0358   1.0000
  24.600   1.6886   0.09050   0.08727   0.0325   0.0356   1.0000
  24.700   1.6876   0.09170   0.08848   0.0321   0.0354   1.0000
  24.800   1.6861   0.09297   0.08976   0.0317   0.0352   1.0000
  24.900   1.6667   0.09641   0.09326   0.0307   0.0350   1.0000
  25.000   1.6636   0.09788   0.09474   0.0302   0.0348   1.0000
  25.100   1.6621   0.09915   0.09602   0.0297   0.0346   1.0000
  25.200   1.6603   0.10044   0.09732   0.0293   0.0343   1.0000
  25.300   1.6579   0.10179   0.09868   0.0288   0.0341   1.0000
  25.400   1.6372   0.10543   0.10238   0.0275   0.0339   1.0000
  25.500   1.6344   0.10689   0.10385   0.0270   0.0335   1.0000
  25.600   1.6334   0.10812   0.10509   0.0265   0.0333   1.0000
  25.700   1.6322   0.10937   0.10636   0.0260   0.0329   1.0000
  25.800   1.6309   0.11065   0.10765   0.0254   0.0327   1.0000
  25.900   1.6283   0.11210   0.10911   0.0248   0.0324   1.0000
  26.000   1.6087   0.11574   0.11281   0.0234   0.0323   1.0000
  26.100   1.6089   0.11685   0.11393   0.0229   0.0323   1.0000
  26.200   1.6093   0.11793   0.11503   0.0223   0.0322   1.0000
  26.300   1.6094   0.11905   0.11615   0.0218   0.0322   1.0000
  26.400   1.6091   0.12022   0.11734   0.0212   0.0322   1.0000
  26.500   1.6084   0.12145   0.11858   0.0206   0.0321   1.0000
  26.600   1.5878   0.12524   0.12243   0.0189   0.0321   1.0000
  26.700   1.5877   0.12637   0.12357   0.0184   0.0320   1.0000
  26.800   1.5877   0.12749   0.12470   0.0178   0.0319   1.0000
  26.900   1.5877   0.12861   0.12584   0.0172   0.0319   1.0000
  27.000   1.5877   0.12975   0.12698   0.0165   0.0318   1.0000
  27.100   1.5869   0.13099   0.12824   0.0159   0.0317   1.0000
  27.200   1.5656   0.13501   0.13232   0.0139   0.0316   1.0000
  27.300   1.5651   0.13623   0.13355   0.0132   0.0315   1.0000
  27.400   1.5649   0.13740   0.13474   0.0125   0.0313   1.0000
  27.500   1.5650   0.13855   0.13589   0.0118   0.0312   1.0000
  27.600   1.5646   0.13976   0.13711   0.0111   0.0310   1.0000
  27.700   1.5629   0.14115   0.13851   0.0102   0.0308   1.0000
  27.800   1.5413   0.14531   0.14273   0.0080   0.0307   1.0000
  27.900   1.5400   0.14666   0.14409   0.0071   0.0305   1.0000
  28.000   1.5399   0.14785   0.14528   0.0063   0.0303   1.0000
  28.100   1.5394   0.14908   0.14652   0.0055   0.0301   1.0000
  28.200   1.5386   0.15037   0.14782   0.0047   0.0299   1.0000
  28.300   1.5369   0.15178   0.14924   0.0037   0.0297   1.0000
  28.400   1.5150   0.15606   0.15358   0.0012   0.0295   1.0000
  28.500   1.5152   0.15718   0.15471   0.0004   0.0293   1.0000
  28.600   1.5152   0.15833   0.15587  -0.0004   0.0290   1.0000
  28.700   1.5155   0.15945   0.15700  -0.0012   0.0287   1.0000
  28.800   1.5153   0.16064   0.15819  -0.0021   0.0284   1.0000
  28.900   1.5145   0.16194   0.15950  -0.0030   0.0282   1.0000
  29.000   1.4935   0.16621   0.16383  -0.0057   0.0280   1.0000
  29.100   1.4947   0.16722   0.16485  -0.0065   0.0280   1.0000
  29.200   1.4964   0.16815   0.16579  -0.0073   0.0279   1.0000
  29.300   1.4981   0.16909   0.16674  -0.0081   0.0279   1.0000
  29.400   1.4997   0.17005   0.16771  -0.0088   0.0279   1.0000
  29.500   1.5010   0.17104   0.16871  -0.0097   0.0278   1.0000
  29.600   1.5018   0.17211   0.16978  -0.0105   0.0278   1.0000
  29.700   1.5016   0.17333   0.17102  -0.0115   0.0277   1.0000
  29.800   1.4827   0.17743   0.17518  -0.0143   0.0277   1.0000
  29.900   1.4841   0.17841   0.17617  -0.0151   0.0276   1.0000
  30.000   1.4855   0.17940   0.17716  -0.0160   0.0275   1.0000
