  
       XFOIL         Version 6.99
  
 Calculated polar for: NACA 0014                                       
  
 1 1 Reynolds number fixed          Mach number fixed         
  
 xtrf =   1.000 (top)        1.000 (bottom)  
 Mach =   0.000     Re =     6.271 e 6     Ncrit =   9.000
  
   alpha    CL        CD       CDp       CM     Top_Xtr  Bot_Xtr
  ------ -------- --------- --------- -------- -------- --------
  -3.000  -0.3405   0.00572   0.00115   0.0005   0.6085   0.1956
  -2.900  -0.3291   0.00569   0.00113   0.0005   0.6028   0.1997
  -2.800  -0.3177   0.00569   0.00111   0.0005   0.5949   0.2045
  -2.700  -0.3066   0.00565   0.00108   0.0005   0.5860   0.2129
  -2.600  -0.2953   0.00561   0.00106   0.0005   0.5805   0.2187
  -2.500  -0.2839   0.00561   0.00105   0.0004   0.5725   0.2231
  -2.400  -0.2728   0.00557   0.00102   0.0005   0.5639   0.2326
  -2.300  -0.2614   0.00554   0.00100   0.0004   0.5586   0.2378
  -2.200  -0.2500   0.00554   0.00099   0.0004   0.5500   0.2419
  -2.100  -0.2388   0.00551   0.00097   0.0004   0.5418   0.2514
  -2.000  -0.2274   0.00548   0.00095   0.0004   0.5368   0.2581
  -1.900  -0.2160   0.00548   0.00094   0.0004   0.5287   0.2616
  -1.800  -0.2047   0.00547   0.00092   0.0004   0.5197   0.2702
  -1.700  -0.1935   0.00542   0.00090   0.0004   0.5151   0.2788
  -1.600  -0.1820   0.00543   0.00089   0.0003   0.5072   0.2822
  -1.500  -0.1707   0.00541   0.00088   0.0003   0.4983   0.2910
  -1.400  -0.1594   0.00538   0.00086   0.0003   0.4936   0.2988
  -1.300  -0.1479   0.00538   0.00086   0.0003   0.4867   0.3031
  -1.200  -0.1366   0.00537   0.00085   0.0003   0.4770   0.3115
  -1.100  -0.1252   0.00534   0.00083   0.0002   0.4725   0.3189
  -1.000  -0.1138   0.00534   0.00083   0.0002   0.4652   0.3240
  -0.900  -0.1025   0.00534   0.00082   0.0002   0.4564   0.3326
  -0.800  -0.0912   0.00531   0.00081   0.0002   0.4510   0.3404
  -0.700  -0.0797   0.00532   0.00081   0.0002   0.4440   0.3449
  -0.600  -0.0684   0.00532   0.00081   0.0001   0.4344   0.3526
  -0.500  -0.0570   0.00529   0.00080   0.0001   0.4298   0.3611
  -0.400  -0.0455   0.00530   0.00079   0.0001   0.4232   0.3660
  -0.300  -0.0342   0.00531   0.00080   0.0001   0.4133   0.3734
  -0.200  -0.0228   0.00529   0.00079   0.0001   0.4082   0.3818
  -0.100  -0.0114   0.00529   0.00079   0.0000   0.4025   0.3875
  -0.000   0.0000   0.00531   0.00079  -0.0000   0.3936   0.3934
   0.100   0.0114   0.00529   0.00079  -0.0000   0.3877   0.4024
   0.200   0.0228   0.00529   0.00079  -0.0001   0.3817   0.4084
   0.300   0.0342   0.00532   0.00080  -0.0001   0.3731   0.4130
   0.400   0.0455   0.00530   0.00079  -0.0001   0.3663   0.4235
   0.500   0.0570   0.00530   0.00080  -0.0001   0.3608   0.4299
   0.600   0.0684   0.00533   0.00081  -0.0001   0.3521   0.4342
   0.700   0.0797   0.00532   0.00081  -0.0002   0.3450   0.4443
   0.800   0.0912   0.00531   0.00081  -0.0002   0.3402   0.4508
   0.900   0.1025   0.00535   0.00083  -0.0002   0.3319   0.4557
   1.000   0.1138   0.00534   0.00083  -0.0002   0.3240   0.4650
   1.100   0.1252   0.00534   0.00083  -0.0002   0.3187   0.4726
   1.200   0.1366   0.00538   0.00085  -0.0003   0.3111   0.4765
   1.300   0.1479   0.00538   0.00086  -0.0003   0.3031   0.4867
   1.400   0.1594   0.00538   0.00086  -0.0003   0.2987   0.4942
   1.500   0.1708   0.00541   0.00088  -0.0003   0.2917   0.4983
   1.600   0.1820   0.00543   0.00089  -0.0003   0.2822   0.5072
   1.700   0.1935   0.00542   0.00090  -0.0004   0.2789   0.5151
   1.800   0.2048   0.00546   0.00092  -0.0004   0.2712   0.5200
   1.900   0.2160   0.00548   0.00094  -0.0004   0.2617   0.5286
   2.000   0.2275   0.00548   0.00094  -0.0004   0.2583   0.5368
   2.100   0.2388   0.00551   0.00096  -0.0004   0.2521   0.5419
   2.200   0.2500   0.00554   0.00099  -0.0004   0.2417   0.5507
   2.300   0.2614   0.00554   0.00100  -0.0004   0.2382   0.5585
   2.400   0.2728   0.00557   0.00102  -0.0005   0.2320   0.5642
   2.500   0.2839   0.00561   0.00105  -0.0004   0.2234   0.5728
   2.600   0.2953   0.00561   0.00106  -0.0005   0.2189   0.5805
   2.700   0.3067   0.00565   0.00108  -0.0005   0.2130   0.5862
   2.800   0.3178   0.00569   0.00111  -0.0005   0.2047   0.5940
   2.900   0.3291   0.00569   0.00113  -0.0005   0.1998   0.6027
   3.000   0.3406   0.00572   0.00115  -0.0005   0.1956   0.6085
   3.100   0.3517   0.00577   0.00118  -0.0005   0.1881   0.6161
   3.200   0.3629   0.00579   0.00121  -0.0005   0.1807   0.6249
   3.300   0.3743   0.00581   0.00123  -0.0005   0.1776   0.6309
   3.400   0.3855   0.00585   0.00126  -0.0005   0.1717   0.6392
   3.500   0.3965   0.00589   0.00129  -0.0005   0.1630   0.6476
   3.600   0.4080   0.00591   0.00132  -0.0005   0.1602   0.6532
   3.700   0.4192   0.00594   0.00135  -0.0005   0.1554   0.6617
   3.800   0.4302   0.00599   0.00139  -0.0004   0.1483   0.6701
   3.900   0.4416   0.00601   0.00141  -0.0005   0.1439   0.6761
   4.000   0.4529   0.00603   0.00144  -0.0005   0.1412   0.6848
   4.100   0.4639   0.00608   0.00149  -0.0004   0.1351   0.6929
   4.200   0.4751   0.00614   0.00152  -0.0004   0.1278   0.6983
   4.300   0.4863   0.00615   0.00155  -0.0004   0.1256   0.7079
   4.400   0.4975   0.00618   0.00159  -0.0004   0.1223   0.7160
   4.500   0.5087   0.00624   0.00163  -0.0004   0.1176   0.7210
   4.600   0.5197   0.00627   0.00167  -0.0004   0.1113   0.7304
   4.700   0.5310   0.00629   0.00170  -0.0004   0.1096   0.7383
   4.900   0.5531   0.00640   0.00180  -0.0003   0.1008   0.7537
   5.000   0.5642   0.00643   0.00183  -0.0003   0.0964   0.7614
   5.200   0.5867   0.00649   0.00191  -0.0003   0.0925   0.7756
   5.300   0.5977   0.00655   0.00196  -0.0002   0.0888   0.7832
   5.400   0.6088   0.00661   0.00201  -0.0002   0.0845   0.7882
   5.500   0.6199   0.00663   0.00205  -0.0002   0.0822   0.7975
   5.600   0.6310   0.00666   0.00209  -0.0001   0.0802   0.8051
   5.700   0.6420   0.00674   0.00215  -0.0001   0.0769   0.8099
   5.800   0.6530   0.00678   0.00220  -0.0000   0.0734   0.8181
   5.900   0.6641   0.00681   0.00224  -0.0000   0.0713   0.8260
   6.000   0.6753   0.00685   0.00229  -0.0000   0.0702   0.8314
   6.100   0.6864   0.00689   0.00234   0.0000   0.0684   0.8380
   6.200   0.6971   0.00695   0.00240   0.0001   0.0658   0.8457
   6.300   0.7081   0.00702   0.00245   0.0002   0.0620   0.8516
   6.400   0.7193   0.00706   0.00250   0.0002   0.0609   0.8560
   6.500   0.7302   0.00709   0.00255   0.0002   0.0597   0.8641
   6.600   0.7411   0.00714   0.00261   0.0003   0.0579   0.8705
   6.700   0.7521   0.00721   0.00267   0.0004   0.0559   0.8751
   6.800   0.7630   0.00728   0.00273   0.0004   0.0534   0.8800
   6.900   0.7739   0.00731   0.00278   0.0005   0.0522   0.8872
   7.000   0.7849   0.00735   0.00283   0.0005   0.0516   0.8930
   7.100   0.7959   0.00741   0.00288   0.0006   0.0505   0.8971
   7.200   0.8068   0.00747   0.00295   0.0006   0.0490   0.9014
   7.300   0.8173   0.00753   0.00301   0.0008   0.0474   0.9080
   7.400   0.8281   0.00760   0.00308   0.0009   0.0452   0.9133
   7.500   0.8391   0.00765   0.00313   0.0009   0.0444   0.9174
   7.600   0.8501   0.00771   0.00319   0.0010   0.0437   0.9201
   7.700   0.8608   0.00776   0.00325   0.0011   0.0427   0.9256
   7.800   0.8712   0.00783   0.00332   0.0012   0.0415   0.9308
   7.900   0.8818   0.00791   0.00339   0.0013   0.0402   0.9350
   8.000   0.8926   0.00798   0.00346   0.0014   0.0386   0.9383
   8.100   0.9036   0.00804   0.00352   0.0015   0.0379   0.9406
   8.200   0.9142   0.00809   0.00358   0.0016   0.0375   0.9448
   8.300   0.9247   0.00814   0.00364   0.0017   0.0370   0.9492
   8.400   0.9352   0.00821   0.00371   0.0019   0.0363   0.9530
   8.500   0.9457   0.00829   0.00378   0.0020   0.0355   0.9561
   8.600   0.9563   0.00837   0.00386   0.0021   0.0345   0.9585
   8.700   0.9669   0.00846   0.00393   0.0022   0.0333   0.9606
   8.800   0.9770   0.00853   0.00401   0.0024   0.0322   0.9644
   8.900   0.9873   0.00858   0.00407   0.0026   0.0320   0.9678
   9.000   0.9977   0.00865   0.00414   0.0028   0.0316   0.9709
   9.100   1.0081   0.00872   0.00421   0.0030   0.0311   0.9735
   9.200   1.0184   0.00880   0.00428   0.0031   0.0305   0.9756
   9.300   1.0288   0.00889   0.00436   0.0033   0.0298   0.9771
   9.400   1.0393   0.00898   0.00444   0.0034   0.0290   0.9798
   9.500   1.0498   0.00907   0.00453   0.0035   0.0281   0.9821
   9.600   1.0605   0.00915   0.00461   0.0036   0.0272   0.9843
   9.700   1.0713   0.00923   0.00468   0.0036   0.0269   0.9863
   9.800   1.0819   0.00930   0.00475   0.0037   0.0268   0.9882
   9.900   1.0921   0.00937   0.00482   0.0039   0.0265   0.9900
  10.000   1.1020   0.00944   0.00490   0.0041   0.0263   0.9914
  10.100   1.1139   0.00953   0.00498   0.0039   0.0258   0.9923
  10.200   1.1261   0.00963   0.00507   0.0036   0.0254   0.9930
  10.300   1.1382   0.00974   0.00517   0.0034   0.0249   0.9936
  10.400   1.1502   0.00985   0.00527   0.0031   0.0242   0.9941
  10.500   1.1622   0.00996   0.00537   0.0028   0.0235   0.9947
  10.600   1.1742   0.01007   0.00548   0.0026   0.0228   0.9952
  10.700   1.1864   0.01016   0.00557   0.0023   0.0225   0.9957
  10.800   1.1985   0.01025   0.00565   0.0020   0.0223   0.9961
  10.900   1.2106   0.01034   0.00574   0.0018   0.0222   0.9965
  11.000   1.2226   0.01043   0.00583   0.0015   0.0219   0.9969
  11.100   1.2345   0.01054   0.00593   0.0013   0.0216   0.9973
  11.200   1.2463   0.01064   0.00603   0.0010   0.0213   0.9977
  11.300   1.2580   0.01075   0.00614   0.0008   0.0209   0.9981
  11.400   1.2697   0.01087   0.00625   0.0006   0.0205   0.9984
  11.500   1.2812   0.01100   0.00637   0.0005   0.0201   0.9988
  11.600   1.2927   0.01112   0.00648   0.0003   0.0196   0.9991
  11.700   1.3042   0.01125   0.00661   0.0001   0.0190   0.9994
  11.800   1.3156   0.01137   0.00673  -0.0001   0.0185   0.9996
  11.900   1.3273   0.01147   0.00683  -0.0003   0.0185   0.9998
  12.000   1.3390   0.01157   0.00693  -0.0005   0.0184   1.0000
  12.100   1.3474   0.01166   0.00702   0.0000   0.0183   1.0000
  12.200   1.3552   0.01175   0.00710   0.0007   0.0182   1.0000
  12.300   1.3633   0.01184   0.00720   0.0012   0.0181   1.0000
  12.400   1.3714   0.01193   0.00729   0.0018   0.0180   1.0000
  12.500   1.3797   0.01203   0.00739   0.0023   0.0178   1.0000
  12.600   1.3880   0.01213   0.00750   0.0028   0.0177   1.0000
  12.700   1.3965   0.01224   0.00760   0.0033   0.0175   1.0000
  12.800   1.4051   0.01236   0.00772   0.0037   0.0173   1.0000
  12.900   1.4138   0.01248   0.00784   0.0041   0.0170   1.0000
  13.000   1.4225   0.01261   0.00797   0.0044   0.0168   1.0000
  13.100   1.4312   0.01274   0.00809   0.0048   0.0165   1.0000
  13.200   1.4399   0.01288   0.00823   0.0052   0.0162   1.0000
  13.300   1.4487   0.01302   0.00837   0.0055   0.0159   1.0000
  13.400   1.4574   0.01316   0.00851   0.0059   0.0155   1.0000
  13.500   1.4662   0.01330   0.00865   0.0062   0.0152   1.0000
  13.600   1.4749   0.01344   0.00880   0.0066   0.0150   1.0000
  13.700   1.4840   0.01356   0.00891   0.0069   0.0150   1.0000
  13.800   1.4931   0.01367   0.00903   0.0072   0.0149   1.0000
  13.900   1.5021   0.01379   0.00915   0.0075   0.0149   1.0000
  14.000   1.5110   0.01391   0.00928   0.0078   0.0148   1.0000
  14.100   1.5199   0.01403   0.00940   0.0081   0.0148   1.0000
  14.200   1.5287   0.01416   0.00953   0.0084   0.0147   1.0000
  14.300   1.5374   0.01429   0.00967   0.0087   0.0146   1.0000
  14.400   1.5460   0.01443   0.00981   0.0091   0.0145   1.0000
  14.500   1.5545   0.01457   0.00995   0.0094   0.0144   1.0000
  14.600   1.5628   0.01471   0.01010   0.0098   0.0143   1.0000
  14.700   1.5710   0.01487   0.01025   0.0102   0.0141   1.0000
  14.800   1.5791   0.01502   0.01041   0.0106   0.0140   1.0000
  14.900   1.5869   0.01518   0.01057   0.0111   0.0139   1.0000
  15.000   1.5945   0.01535   0.01074   0.0115   0.0137   1.0000
  15.100   1.6018   0.01552   0.01091   0.0121   0.0136   1.0000
  15.200   1.6085   0.01569   0.01109   0.0127   0.0134   1.0000
  15.300   1.6147   0.01587   0.01127   0.0135   0.0132   1.0000
  15.400   1.6205   0.01605   0.01146   0.0143   0.0131   1.0000
  15.500   1.6263   0.01624   0.01166   0.0150   0.0129   1.0000
  15.600   1.6320   0.01644   0.01187   0.0158   0.0127   1.0000
  15.700   1.6379   0.01665   0.01208   0.0165   0.0125   1.0000
  15.800   1.6435   0.01686   0.01230   0.0173   0.0123   1.0000
  15.900   1.6491   0.01709   0.01253   0.0180   0.0121   1.0000
  16.000   1.6548   0.01731   0.01277   0.0187   0.0119   1.0000
  16.100   1.6608   0.01753   0.01299   0.0193   0.0119   1.0000
  16.200   1.6670   0.01773   0.01320   0.0199   0.0119   1.0000
  16.300   1.6733   0.01794   0.01342   0.0205   0.0119   1.0000
  16.400   1.6795   0.01815   0.01364   0.0211   0.0118   1.0000
  16.500   1.6853   0.01837   0.01387   0.0217   0.0118   1.0000
  16.600   1.6912   0.01860   0.01411   0.0222   0.0118   1.0000
  16.700   1.6972   0.01884   0.01436   0.0228   0.0118   1.0000
  16.800   1.7031   0.01908   0.01461   0.0233   0.0117   1.0000
  16.900   1.7086   0.01935   0.01489   0.0239   0.0117   1.0000
  17.000   1.7141   0.01961   0.01517   0.0244   0.0117   1.0000
  17.100   1.7197   0.01989   0.01545   0.0250   0.0116   1.0000
  17.200   1.7250   0.02017   0.01575   0.0255   0.0116   1.0000
  17.300   1.7300   0.02048   0.01607   0.0260   0.0116   1.0000
  17.400   1.7351   0.02080   0.01639   0.0265   0.0115   1.0000
  17.500   1.7403   0.02112   0.01672   0.0270   0.0115   1.0000
  17.600   1.7450   0.02147   0.01709   0.0275   0.0114   1.0000
  17.700   1.7496   0.02183   0.01747   0.0280   0.0114   1.0000
  17.800   1.7542   0.02220   0.01784   0.0285   0.0113   1.0000
  17.900   1.7585   0.02260   0.01825   0.0290   0.0112   1.0000
  18.000   1.7625   0.02302   0.01868   0.0295   0.0112   1.0000
  18.100   1.7668   0.02343   0.01911   0.0299   0.0111   1.0000
  18.200   1.7706   0.02389   0.01959   0.0303   0.0110   1.0000
  18.300   1.7742   0.02437   0.02008   0.0307   0.0110   1.0000
  18.400   1.7780   0.02486   0.02058   0.0311   0.0109   1.0000
  18.500   1.7811   0.02540   0.02113   0.0315   0.0108   1.0000
  18.600   1.7842   0.02594   0.02169   0.0319   0.0108   1.0000
  18.700   1.7873   0.02650   0.02226   0.0322   0.0107   1.0000
  18.800   1.7895   0.02713   0.02291   0.0326   0.0106   1.0000
  18.900   1.7923   0.02774   0.02353   0.0329   0.0105   1.0000
  19.000   1.7942   0.02843   0.02424   0.0331   0.0104   1.0000
  19.100   1.7964   0.02912   0.02494   0.0334   0.0104   1.0000
  19.200   1.7983   0.02984   0.02569   0.0336   0.0103   1.0000
  19.300   1.7999   0.03062   0.02648   0.0337   0.0102   1.0000
  19.400   1.8016   0.03139   0.02727   0.0339   0.0101   1.0000
  19.500   1.8026   0.03224   0.02814   0.0340   0.0100   1.0000
  19.600   1.8035   0.03308   0.02900   0.0342   0.0099   1.0000
  19.700   1.8036   0.03404   0.02999   0.0342   0.0098   1.0000
  19.800   1.8044   0.03494   0.03090   0.0343   0.0097   1.0000
  19.900   1.8037   0.03602   0.03201   0.0342   0.0096   1.0000
  20.000   1.8041   0.03699   0.03301   0.0342   0.0095   1.0000
