  
       XFOIL         Version 6.99
  
 Calculated polar for: NACA 0006                                       
  
 1 1 Reynolds number fixed          Mach number fixed         
  
 xtrf =   1.000 (top)        1.000 (bottom)  
 Mach =   0.000     Re =     6.271 e 6     Ncrit =   9.000
  
   alpha    CL        CD       CDp       CM     Top_Xtr  Bot_Xtr
  ------ -------- --------- --------- -------- -------- --------
  -3.000  -0.3256   0.00497   0.00095  -0.0010   0.9400   0.0204
  -2.900  -0.3153   0.00495   0.00091  -0.0008   0.9287   0.0215
  -2.800  -0.3046   0.00494   0.00088  -0.0007   0.9185   0.0244
  -2.700  -0.2941   0.00492   0.00084  -0.0006   0.9067   0.0288
  -2.600  -0.2835   0.00490   0.00080  -0.0004   0.8931   0.0328
  -2.500  -0.2727   0.00488   0.00077  -0.0003   0.8814   0.0351
  -2.400  -0.2619   0.00487   0.00074  -0.0003   0.8671   0.0433
  -2.300  -0.2512   0.00483   0.00070  -0.0002   0.8537   0.0532
  -2.200  -0.2404   0.00480   0.00066  -0.0001   0.8379   0.0635
  -2.100  -0.2295   0.00479   0.00063  -0.0001   0.8230   0.0703
  -2.000  -0.2186   0.00478   0.00060  -0.0000   0.8073   0.0789
  -1.800  -0.1968   0.00474   0.00054   0.0000   0.7754   0.0986
  -1.700  -0.1858   0.00471   0.00052   0.0001   0.7599   0.1123
  -1.500  -0.1642   0.00460   0.00046   0.0001   0.7263   0.1583
  -1.400  -0.1534   0.00454   0.00043   0.0001   0.7085   0.1860
  -1.300  -0.1424   0.00451   0.00041   0.0001   0.6913   0.2047
  -1.200  -0.1315   0.00450   0.00039   0.0001   0.6742   0.2179
  -1.100  -0.1205   0.00450   0.00037   0.0001   0.6568   0.2312
  -1.000  -0.1095   0.00449   0.00036   0.0001   0.6378   0.2461
  -0.900  -0.0985   0.00449   0.00035   0.0001   0.6201   0.2596
  -0.800  -0.0875   0.00449   0.00034   0.0001   0.6029   0.2723
  -0.700  -0.0765   0.00446   0.00032   0.0001   0.5863   0.2920
  -0.600  -0.0658   0.00438   0.00030   0.0001   0.5675   0.3310
  -0.500  -0.0548   0.00437   0.00030   0.0001   0.5483   0.3503
  -0.400  -0.0439   0.00435   0.00029   0.0001   0.5312   0.3738
  -0.300  -0.0329   0.00435   0.00029   0.0001   0.5106   0.3906
  -0.200  -0.0220   0.00435   0.00028   0.0000   0.4895   0.4095
  -0.100  -0.0110   0.00433   0.00028   0.0000   0.4731   0.4326
  -0.000  -0.0001   0.00434   0.00028   0.0000   0.4528   0.4518
   0.100   0.0109   0.00433   0.00028   0.0000   0.4331   0.4722
   0.200   0.0218   0.00434   0.00028  -0.0000   0.4118   0.4905
   0.300   0.0328   0.00434   0.00028  -0.0000   0.3932   0.5100
   0.400   0.0437   0.00436   0.00029  -0.0000   0.3716   0.5302
   0.500   0.0546   0.00439   0.00030  -0.0000   0.3469   0.5470
   0.600   0.0656   0.00439   0.00030  -0.0000   0.3310   0.5668
   0.700   0.0763   0.00445   0.00032  -0.0001   0.2941   0.5864
   0.800   0.0873   0.00448   0.00034  -0.0001   0.2740   0.6025
   0.900   0.0983   0.00448   0.00035  -0.0001   0.2607   0.6221
   1.000   0.1093   0.00449   0.00036  -0.0001   0.2464   0.6381
   1.100   0.1203   0.00449   0.00037  -0.0001   0.2318   0.6568
   1.200   0.1313   0.00450   0.00039  -0.0001   0.2173   0.6750
   1.300   0.1423   0.00451   0.00041  -0.0001   0.2052   0.6918
   1.400   0.1532   0.00454   0.00043  -0.0001   0.1868   0.7085
   1.500   0.1639   0.00462   0.00046  -0.0001   0.1548   0.7257
   1.600   0.1748   0.00468   0.00049  -0.0000   0.1292   0.7419
   1.700   0.1857   0.00472   0.00052  -0.0000   0.1128   0.7587
   1.800   0.1966   0.00474   0.00054   0.0000   0.0988   0.7753
   1.900   0.2075   0.00476   0.00057   0.0000   0.0893   0.7911
   2.000   0.2184   0.00477   0.00059   0.0001   0.0790   0.8075
   2.100   0.2293   0.00479   0.00063   0.0001   0.0705   0.8230
   2.200   0.2402   0.00479   0.00066   0.0002   0.0637   0.8389
   2.300   0.2510   0.00483   0.00070   0.0002   0.0524   0.8535
   2.400   0.2618   0.00486   0.00074   0.0003   0.0439   0.8674
   2.500   0.2725   0.00488   0.00077   0.0004   0.0351   0.8812
   2.600   0.2833   0.00490   0.00080   0.0005   0.0329   0.8941
   2.700   0.2939   0.00492   0.00084   0.0006   0.0288   0.9065
   2.800   0.3045   0.00494   0.00088   0.0007   0.0244   0.9181
   2.900   0.3151   0.00495   0.00091   0.0009   0.0214   0.9289
   3.000   0.3255   0.00497   0.00095   0.0011   0.0203   0.9400
   3.100   0.3357   0.00500   0.00099   0.0013   0.0183   0.9492
   3.200   0.3461   0.00504   0.00103   0.0015   0.0163   0.9583
   3.300   0.3563   0.00507   0.00107   0.0018   0.0133   0.9663
   3.400   0.3669   0.00511   0.00111   0.0019   0.0119   0.9740
   3.500   0.3781   0.00514   0.00115   0.0019   0.0118   0.9791
   3.600   0.3901   0.00518   0.00120   0.0017   0.0116   0.9842
   3.700   0.4021   0.00523   0.00124   0.0015   0.0108   0.9882
   3.800   0.4137   0.00537   0.00137   0.0015   0.0068   0.9912
   3.900   0.4259   0.00544   0.00146   0.0012   0.0065   0.9932
   4.100   0.4518   0.00556   0.00158   0.0004   0.0063   0.9959
   4.200   0.4645   0.00559   0.00159  -0.0000   0.0062   0.9971
   4.300   0.4771   0.00563   0.00162  -0.0004   0.0062   0.9982
   4.400   0.4896   0.00566   0.00164  -0.0007   0.0062   0.9990
   4.500   0.5021   0.00571   0.00167  -0.0011   0.0061   0.9997
   4.600   0.5137   0.00575   0.00171  -0.0012   0.0060   1.0000
   4.700   0.5244   0.00580   0.00176  -0.0011   0.0057   1.0000
