  
       XFOIL         Version 6.99
  
 Calculated polar for: NACA 2414                                       
  
 1 1 Reynolds number fixed          Mach number fixed         
  
 xtrf =   1.000 (top)        1.000 (bottom)  
 Mach =   0.000     Re =    12.543 e 6     Ncrit =   9.000
  
   alpha    CL        CD       CDp       CM     Top_Xtr  Bot_Xtr
  ------ -------- --------- --------- -------- -------- --------
  -3.000  -0.1015   0.00557   0.00099  -0.0514   0.5019   0.0911
  -2.900  -0.0901   0.00556   0.00098  -0.0514   0.4967   0.0934
  -2.800  -0.0785   0.00556   0.00097  -0.0515   0.4900   0.0945
  -2.700  -0.0668   0.00554   0.00095  -0.0515   0.4873   0.0995
  -2.600  -0.0552   0.00551   0.00093  -0.0516   0.4847   0.1035
  -2.500  -0.0437   0.00548   0.00092  -0.0516   0.4808   0.1074
  -2.400  -0.0321   0.00549   0.00091  -0.0517   0.4761   0.1088
  -2.300  -0.0205   0.00549   0.00090  -0.0517   0.4698   0.1112
  -2.200  -0.0089   0.00546   0.00089  -0.0518   0.4663   0.1173
  -2.100   0.0026   0.00542   0.00087  -0.0518   0.4644   0.1225
  -2.000   0.0143   0.00541   0.00086  -0.0519   0.4614   0.1248
  -1.900   0.0259   0.00542   0.00086  -0.0520   0.4571   0.1268
  -1.800   0.0374   0.00542   0.00085  -0.0520   0.4512   0.1324
  -1.700   0.0489   0.00539   0.00084  -0.0520   0.4460   0.1384
  -1.600   0.0606   0.00536   0.00082  -0.0521   0.4445   0.1422
  -1.500   0.0724   0.00536   0.00082  -0.0522   0.4426   0.1438
  -1.400   0.0840   0.00534   0.00081  -0.0523   0.4398   0.1506
  -1.300   0.0954   0.00533   0.00080  -0.0523   0.4358   0.1565
  -1.200   0.1070   0.00532   0.00080  -0.0523   0.4314   0.1602
  -1.100   0.1186   0.00532   0.00080  -0.0524   0.4265   0.1629
  -1.000   0.1303   0.00530   0.00079  -0.0525   0.4237   0.1708
  -0.900   0.1419   0.00527   0.00078  -0.0525   0.4223   0.1770
  -0.800   0.1536   0.00526   0.00077  -0.0526   0.4198   0.1800
  -0.700   0.1652   0.00527   0.00078  -0.0527   0.4160   0.1819
  -0.600   0.1767   0.00527   0.00078  -0.0527   0.4117   0.1909
  -0.500   0.1882   0.00525   0.00077  -0.0528   0.4064   0.1979
  -0.400   0.1999   0.00525   0.00077  -0.0528   0.4027   0.2010
  -0.300   0.2117   0.00524   0.00077  -0.0529   0.4014   0.2057
  -0.200   0.2232   0.00522   0.00076  -0.0530   0.3990   0.2148
  -0.100   0.2347   0.00521   0.00077  -0.0530   0.3950   0.2206
  -0.000   0.2462   0.00524   0.00077  -0.0531   0.3889   0.2224
   0.100   0.2577   0.00524   0.00078  -0.0531   0.3821   0.2304
   0.200   0.2694   0.00522   0.00077  -0.0532   0.3806   0.2380
   0.300   0.2810   0.00522   0.00078  -0.0532   0.3774   0.2429
   0.400   0.2924   0.00523   0.00079  -0.0533   0.3723   0.2486
   0.500   0.3037   0.00524   0.00080  -0.0533   0.3655   0.2577
   0.600   0.3154   0.00524   0.00080  -0.0534   0.3607   0.2624
   0.700   0.3271   0.00524   0.00080  -0.0534   0.3588   0.2661
   0.800   0.3385   0.00523   0.00081  -0.0535   0.3550   0.2779
   0.900   0.3498   0.00525   0.00082  -0.0535   0.3492   0.2841
   1.000   0.3613   0.00528   0.00083  -0.0535   0.3406   0.2867
   1.100   0.3729   0.00527   0.00084  -0.0536   0.3391   0.2964
   1.200   0.3843   0.00527   0.00085  -0.0536   0.3345   0.3048
   1.300   0.3956   0.00530   0.00087  -0.0537   0.3281   0.3086
   1.400   0.4070   0.00531   0.00088  -0.0537   0.3203   0.3194
   1.500   0.4186   0.00530   0.00088  -0.0537   0.3183   0.3267
   1.600   0.4301   0.00533   0.00090  -0.0538   0.3139   0.3304
   1.700   0.4413   0.00535   0.00092  -0.0538   0.3073   0.3407
   1.800   0.4526   0.00536   0.00093  -0.0538   0.2994   0.3502
   1.900   0.4642   0.00537   0.00095  -0.0539   0.2972   0.3559
   2.000   0.4754   0.00539   0.00097  -0.0539   0.2911   0.3671
   2.100   0.4866   0.00542   0.00099  -0.0539   0.2843   0.3740
   2.200   0.4981   0.00544   0.00100  -0.0539   0.2785   0.3822
   2.400   0.5205   0.00547   0.00105  -0.0539   0.2679   0.4059
   2.500   0.5317   0.00549   0.00107  -0.0539   0.2596   0.4163
   2.600   0.5432   0.00550   0.00109  -0.0540   0.2569   0.4264
   2.700   0.5542   0.00552   0.00111  -0.0540   0.2508   0.4398
   2.800   0.5653   0.00554   0.00115  -0.0540   0.2436   0.4533
   2.900   0.5766   0.00555   0.00116  -0.0540   0.2382   0.4640
   3.000   0.5879   0.00556   0.00119  -0.0540   0.2348   0.4783
   3.100   0.5988   0.00562   0.00122  -0.0540   0.2269   0.4866
   3.200   0.6101   0.00563   0.00125  -0.0540   0.2202   0.4993
   3.300   0.6214   0.00565   0.00127  -0.0540   0.2167   0.5085
   3.400   0.6323   0.00570   0.00131  -0.0540   0.2097   0.5216
   3.500   0.6434   0.00573   0.00135  -0.0540   0.2018   0.5304
   3.600   0.6548   0.00575   0.00137  -0.0540   0.1988   0.5398
   3.700   0.6659   0.00578   0.00140  -0.0540   0.1938   0.5507
   3.800   0.6768   0.00585   0.00145  -0.0539   0.1846   0.5570
   3.900   0.6880   0.00585   0.00147  -0.0539   0.1812   0.5716
   4.000   0.6992   0.00590   0.00151  -0.0539   0.1770   0.5777
   4.100   0.7101   0.00594   0.00155  -0.0539   0.1709   0.5912
   4.200   0.7212   0.00599   0.00159  -0.0539   0.1636   0.5988
   4.300   0.7325   0.00601   0.00162  -0.0539   0.1609   0.6079
   4.400   0.7432   0.00607   0.00167  -0.0538   0.1548   0.6180
   4.500   0.7542   0.00613   0.00172  -0.0538   0.1472   0.6268
   4.600   0.7654   0.00614   0.00174  -0.0538   0.1446   0.6388
   4.700   0.7764   0.00620   0.00179  -0.0538   0.1399   0.6460
   4.800   0.7872   0.00625   0.00185  -0.0537   0.1337   0.6590
   4.900   0.7983   0.00628   0.00188  -0.0537   0.1291   0.6681
   5.000   0.8094   0.00632   0.00192  -0.0537   0.1261   0.6788
   5.100   0.8200   0.00639   0.00198  -0.0536   0.1204   0.6891
   5.200   0.8310   0.00644   0.00203  -0.0536   0.1138   0.6985
   5.300   0.8422   0.00646   0.00206  -0.0536   0.1124   0.7104
   5.400   0.8532   0.00651   0.00211  -0.0536   0.1093   0.7178
   5.500   0.8637   0.00657   0.00217  -0.0535   0.1043   0.7312
   5.600   0.8747   0.00662   0.00222  -0.0534   0.0988   0.7390
   5.700   0.8857   0.00664   0.00226  -0.0534   0.0971   0.7529
   5.800   0.8964   0.00672   0.00232  -0.0533   0.0930   0.7620
   5.900   0.9071   0.00677   0.00238  -0.0532   0.0882   0.7758
   6.000   0.9182   0.00680   0.00242  -0.0532   0.0853   0.7852
   6.100   0.9291   0.00682   0.00246  -0.0532   0.0840   0.7982
   6.200   0.9399   0.00689   0.00253  -0.0531   0.0811   0.8064
   6.300   0.9503   0.00695   0.00260  -0.0530   0.0763   0.8203
   6.400   0.9613   0.00699   0.00265  -0.0530   0.0733   0.8294
   6.500   0.9721   0.00702   0.00269  -0.0529   0.0719   0.8431
   6.600   0.9828   0.00709   0.00275  -0.0528   0.0693   0.8513
   6.700   0.9932   0.00715   0.00282  -0.0527   0.0663   0.8645
   6.800   1.0040   0.00719   0.00288  -0.0526   0.0631   0.8741
   6.900   1.0147   0.00721   0.00292  -0.0526   0.0624   0.8880
   7.000   1.0255   0.00726   0.00298  -0.0525   0.0611   0.8973
   7.100   1.0356   0.00732   0.00305  -0.0523   0.0587   0.9115
   7.200   1.0459   0.00739   0.00313  -0.0521   0.0552   0.9205
   7.300   1.0561   0.00742   0.00318  -0.0519   0.0535   0.9342
   7.400   1.0666   0.00747   0.00323  -0.0518   0.0526   0.9422
   7.500   1.0763   0.00752   0.00330  -0.0515   0.0512   0.9544
   7.600   1.0864   0.00759   0.00337  -0.0513   0.0494   0.9609
   7.700   1.0956   0.00765   0.00344  -0.0508   0.0473   0.9712
   7.800   1.1059   0.00771   0.00349  -0.0506   0.0456   0.9763
   7.900   1.1160   0.00776   0.00354  -0.0504   0.0452   0.9823
   8.000   1.1263   0.00782   0.00360  -0.0503   0.0445   0.9871
   8.100   1.1366   0.00790   0.00366  -0.0501   0.0432   0.9901
   8.200   1.1470   0.00799   0.00374  -0.0500   0.0415   0.9918
   8.300   1.1592   0.00808   0.00381  -0.0503   0.0393   0.9932
   8.400   1.1714   0.00814   0.00387  -0.0505   0.0385   0.9944
   8.500   1.1834   0.00822   0.00394  -0.0508   0.0378   0.9954
   8.600   1.1951   0.00830   0.00401  -0.0510   0.0368   0.9963
   8.700   1.2066   0.00840   0.00409  -0.0511   0.0356   0.9972
   8.800   1.2181   0.00849   0.00416  -0.0512   0.0342   0.9980
   8.900   1.2296   0.00857   0.00423  -0.0514   0.0329   0.9988
   9.000   1.2412   0.00864   0.00430  -0.0515   0.0325   0.9994
   9.100   1.2528   0.00871   0.00436  -0.0517   0.0321   0.9999
   9.200   1.2632   0.00878   0.00443  -0.0516   0.0316   1.0000
   9.300   1.2731   0.00887   0.00450  -0.0513   0.0309   1.0000
   9.400   1.2830   0.00896   0.00458  -0.0511   0.0300   1.0000
   9.500   1.2929   0.00905   0.00466  -0.0509   0.0291   1.0000
   9.600   1.3030   0.00913   0.00474  -0.0508   0.0279   1.0000
   9.700   1.3132   0.00921   0.00480  -0.0506   0.0273   1.0000
   9.800   1.3234   0.00928   0.00487  -0.0505   0.0271   1.0000
   9.900   1.3336   0.00936   0.00494  -0.0503   0.0267   1.0000
  10.000   1.3436   0.00945   0.00502  -0.0502   0.0261   1.0000
  10.100   1.3536   0.00954   0.00511  -0.0500   0.0255   1.0000
  10.200   1.3634   0.00964   0.00520  -0.0498   0.0248   1.0000
  10.300   1.3733   0.00974   0.00529  -0.0496   0.0240   1.0000
  10.400   1.3833   0.00983   0.00537  -0.0494   0.0232   1.0000
  10.500   1.3934   0.00991   0.00544  -0.0493   0.0227   1.0000
  10.600   1.4035   0.00999   0.00552  -0.0491   0.0226   1.0000
  10.700   1.4135   0.01007   0.00559  -0.0490   0.0225   1.0000
  10.800   1.4235   0.01015   0.00568  -0.0488   0.0222   1.0000
  10.900   1.4334   0.01024   0.00576  -0.0486   0.0219   1.0000
  11.000   1.4432   0.01034   0.00585  -0.0484   0.0215   1.0000
  11.100   1.4528   0.01044   0.00595  -0.0482   0.0211   1.0000
  11.200   1.4624   0.01055   0.00605  -0.0479   0.0206   1.0000
  11.300   1.4719   0.01066   0.00614  -0.0477   0.0200   1.0000
  11.400   1.4815   0.01076   0.00624  -0.0475   0.0194   1.0000
  11.500   1.4911   0.01086   0.00633  -0.0473   0.0189   1.0000
  11.600   1.5008   0.01095   0.00642  -0.0471   0.0187   1.0000
  11.700   1.5105   0.01104   0.00651  -0.0469   0.0186   1.0000
  11.800   1.5201   0.01113   0.00660  -0.0466   0.0184   1.0000
  11.900   1.5296   0.01123   0.00669  -0.0464   0.0183   1.0000
  12.000   1.5390   0.01133   0.00679  -0.0462   0.0180   1.0000
  12.100   1.5483   0.01144   0.00690  -0.0459   0.0177   1.0000
  12.200   1.5574   0.01156   0.00701  -0.0456   0.0174   1.0000
  12.300   1.5663   0.01168   0.00713  -0.0453   0.0170   1.0000
  12.400   1.5752   0.01180   0.00724  -0.0449   0.0166   1.0000
  12.500   1.5841   0.01192   0.00735  -0.0446   0.0162   1.0000
  12.600   1.5930   0.01204   0.00747  -0.0443   0.0158   1.0000
  12.700   1.6019   0.01215   0.00758  -0.0440   0.0154   1.0000
  12.800   1.6109   0.01226   0.00769  -0.0437   0.0152   1.0000
  12.900   1.6199   0.01236   0.00779  -0.0433   0.0151   1.0000
  13.000   1.6287   0.01247   0.00790  -0.0430   0.0151   1.0000
  13.100   1.6374   0.01258   0.00800  -0.0427   0.0150   1.0000
  13.200   1.6459   0.01269   0.00811  -0.0423   0.0149   1.0000
  13.300   1.6543   0.01280   0.00823  -0.0418   0.0148   1.0000
  13.400   1.6624   0.01292   0.00834  -0.0414   0.0147   1.0000
  13.500   1.6698   0.01304   0.00846  -0.0408   0.0146   1.0000
  13.600   1.6769   0.01316   0.00859  -0.0401   0.0144   1.0000
  13.700   1.6837   0.01330   0.00872  -0.0394   0.0142   1.0000
  13.800   1.6903   0.01344   0.00886  -0.0387   0.0140   1.0000
  13.900   1.6967   0.01359   0.00902  -0.0379   0.0138   1.0000
  14.000   1.7034   0.01374   0.00916  -0.0373   0.0136   1.0000
  14.100   1.7102   0.01390   0.00932  -0.0366   0.0133   1.0000
  14.200   1.7169   0.01406   0.00948  -0.0359   0.0131   1.0000
  14.300   1.7233   0.01422   0.00964  -0.0352   0.0128   1.0000
  14.400   1.7298   0.01438   0.00981  -0.0346   0.0125   1.0000
  14.500   1.7366   0.01455   0.00997  -0.0339   0.0123   1.0000
  14.600   1.7435   0.01471   0.01013  -0.0333   0.0121   1.0000
  14.700   1.7505   0.01486   0.01029  -0.0328   0.0121   1.0000
  14.800   1.7573   0.01502   0.01046  -0.0322   0.0120   1.0000
  14.900   1.7640   0.01519   0.01063  -0.0316   0.0120   1.0000
  15.000   1.7706   0.01536   0.01080  -0.0310   0.0120   1.0000
  15.100   1.7774   0.01553   0.01097  -0.0304   0.0119   1.0000
  15.200   1.7842   0.01570   0.01115  -0.0299   0.0119   1.0000
  15.300   1.7905   0.01590   0.01135  -0.0293   0.0118   1.0000
  15.400   1.7966   0.01610   0.01156  -0.0286   0.0117   1.0000
  15.500   1.8028   0.01631   0.01177  -0.0280   0.0116   1.0000
  15.600   1.8091   0.01652   0.01199  -0.0275   0.0115   1.0000
  15.700   1.8153   0.01674   0.01221  -0.0269   0.0114   1.0000
  15.800   1.8207   0.01698   0.01245  -0.0262   0.0113   1.0000
  15.900   1.8260   0.01723   0.01271  -0.0255   0.0112   1.0000
  16.000   1.8314   0.01750   0.01298  -0.0249   0.0110   1.0000
  16.100   1.8371   0.01776   0.01324  -0.0243   0.0109   1.0000
  16.200   1.8427   0.01802   0.01351  -0.0237   0.0107   1.0000
  16.300   1.8473   0.01834   0.01383  -0.0230   0.0106   1.0000
  16.400   1.8524   0.01864   0.01413  -0.0224   0.0104   1.0000
  16.500   1.8576   0.01893   0.01442  -0.0217   0.0102   1.0000
  16.600   1.8629   0.01922   0.01472  -0.0212   0.0101   1.0000
  16.700   1.8673   0.01955   0.01506  -0.0205   0.0098   1.0000
  16.800   1.8719   0.01989   0.01540  -0.0199   0.0097   1.0000
  16.900   1.8769   0.02021   0.01573  -0.0193   0.0096   1.0000
  17.000   1.8821   0.02053   0.01606  -0.0188   0.0094   1.0000
  17.100   1.8869   0.02088   0.01642  -0.0182   0.0094   1.0000
  17.200   1.8915   0.02124   0.01679  -0.0177   0.0094   1.0000
  17.300   1.8966   0.02158   0.01713  -0.0172   0.0093   1.0000
  17.400   1.9019   0.02191   0.01747  -0.0167   0.0093   1.0000
  17.500   1.9068   0.02227   0.01784  -0.0163   0.0093   1.0000
  17.600   1.9108   0.02268   0.01826  -0.0157   0.0093   1.0000
  17.700   1.9152   0.02307   0.01866  -0.0152   0.0093   1.0000
  17.800   1.9199   0.02345   0.01904  -0.0147   0.0093   1.0000
  17.900   1.9245   0.02385   0.01945  -0.0143   0.0093   1.0000
  18.000   1.9279   0.02432   0.01994  -0.0138   0.0092   1.0000
  18.100   1.9320   0.02477   0.02040  -0.0133   0.0092   1.0000
  18.200   1.9365   0.02520   0.02083  -0.0129   0.0092   1.0000
  18.300   1.9403   0.02567   0.02132  -0.0124   0.0091   1.0000
  18.400   1.9434   0.02621   0.02187  -0.0120   0.0091   1.0000
  18.500   1.9471   0.02671   0.02238  -0.0116   0.0091   1.0000
  18.600   1.9510   0.02720   0.02288  -0.0112   0.0090   1.0000
  18.700   1.9535   0.02781   0.02350  -0.0107   0.0090   1.0000
  18.800   1.9561   0.02840   0.02410  -0.0103   0.0089   1.0000
  18.900   1.9593   0.02895   0.02466  -0.0099   0.0089   1.0000
  19.000   1.9617   0.02956   0.02529  -0.0095   0.0088   1.0000
  19.100   1.9632   0.03028   0.02602  -0.0091   0.0087   1.0000
  19.200   1.9660   0.03090   0.02665  -0.0088   0.0087   1.0000
  19.300   1.9684   0.03156   0.02732  -0.0084   0.0086   1.0000
  19.400   1.9694   0.03237   0.02815  -0.0081   0.0086   1.0000
  19.500   1.9714   0.03309   0.02888  -0.0078   0.0085   1.0000
  19.600   1.9732   0.03383   0.02963  -0.0075   0.0084   1.0000
  19.700   1.9733   0.03476   0.03058  -0.0072   0.0083   1.0000
  19.800   1.9751   0.03553   0.03136  -0.0070   0.0083   1.0000
  19.900   1.9764   0.03635   0.03219  -0.0067   0.0082   1.0000
  20.000   1.9761   0.03735   0.03321  -0.0065   0.0081   1.0000
  20.100   1.9771   0.03820   0.03407  -0.0063   0.0080   1.0000
  20.200   1.9777   0.03910   0.03499  -0.0061   0.0079   1.0000
  20.300   1.9770   0.04017   0.03608  -0.0059   0.0078   1.0000
  20.400   1.9780   0.04106   0.03698  -0.0058   0.0077   1.0000
  20.500   1.9780   0.04207   0.03801  -0.0057   0.0077   1.0000
  20.600   1.9770   0.04323   0.03919  -0.0056   0.0076   1.0000
  20.700   1.9776   0.04418   0.04015  -0.0055   0.0075   1.0000
  20.800   1.9767   0.04534   0.04133  -0.0055   0.0074   1.0000
  20.900   1.9755   0.04653   0.04254  -0.0055   0.0073   1.0000
  21.000   1.9759   0.04754   0.04357  -0.0054   0.0072   1.0000
  21.100   1.9733   0.04892   0.04497  -0.0055   0.0072   1.0000
  21.200   1.9727   0.05008   0.04615  -0.0055   0.0071   1.0000
  21.300   1.9723   0.05116   0.04725  -0.0055   0.0070   1.0000
  21.400   1.9691   0.05263   0.04874  -0.0056   0.0070   1.0000
  21.500   1.9684   0.05379   0.04992  -0.0057   0.0070   1.0000
  21.600   1.9685   0.05485   0.05100  -0.0057   0.0070   1.0000
  21.700   1.9646   0.05645   0.05263  -0.0060   0.0070   1.0000
  21.800   1.9636   0.05767   0.05387  -0.0061   0.0070   1.0000
  21.900   1.9633   0.05880   0.05502  -0.0062   0.0070   1.0000
  22.000   1.9586   0.06054   0.05679  -0.0065   0.0070   1.0000
  22.100   1.9571   0.06185   0.05812  -0.0067   0.0070   1.0000
  22.200   1.9564   0.06304   0.05933  -0.0068   0.0070   1.0000
  22.300   1.9508   0.06493   0.06124  -0.0072   0.0070   1.0000
  22.400   1.9488   0.06631   0.06265  -0.0074   0.0070   1.0000
  22.500   1.9478   0.06756   0.06392  -0.0076   0.0070   1.0000
  22.600   1.9406   0.06962   0.06601  -0.0081   0.0070   1.0000
  22.700   1.9380   0.07106   0.06747  -0.0084   0.0070   1.0000
  22.800   1.9363   0.07239   0.06882  -0.0086   0.0070   1.0000
  22.900   1.9283   0.07461   0.07108  -0.0092   0.0070   1.0000
  23.000   1.9254   0.07614   0.07263  -0.0095   0.0069   1.0000
  23.100   1.9233   0.07755   0.07406  -0.0098   0.0069   1.0000
  23.200   1.9144   0.07994   0.07649  -0.0105   0.0069   1.0000
  23.300   1.9110   0.08154   0.07811  -0.0109   0.0069   1.0000
  23.400   1.9086   0.08302   0.07961  -0.0113   0.0069   1.0000
  23.500   1.8989   0.08555   0.08218  -0.0121   0.0069   1.0000
  23.600   1.8950   0.08725   0.08390  -0.0126   0.0069   1.0000
  23.700   1.8920   0.08879   0.08547  -0.0130   0.0069   1.0000
  23.800   1.8817   0.09137   0.08809  -0.0139   0.0069   1.0000
  23.900   1.8765   0.09324   0.08998  -0.0145   0.0069   1.0000
  24.000   1.8730   0.09485   0.09161  -0.0149   0.0069   1.0000
  24.100   1.8640   0.09732   0.09412  -0.0158   0.0069   1.0000
  24.200   1.8567   0.09953   0.09636  -0.0166   0.0069   1.0000
  24.300   1.8532   0.10120   0.09805  -0.0172   0.0068   1.0000
  24.400   1.8496   0.10288   0.09975  -0.0178   0.0068   1.0000
  24.500   1.8362   0.10606   0.10298  -0.0190   0.0068   1.0000
  24.600   1.8322   0.10783   0.10477  -0.0197   0.0068   1.0000
  24.700   1.8284   0.10955   0.10652  -0.0204   0.0068   1.0000
  24.800   1.8147   0.11283   0.10985  -0.0218   0.0068   1.0000
  24.900   1.8101   0.11468   0.11172  -0.0226   0.0068   1.0000
  25.000   1.8062   0.11639   0.11345  -0.0233   0.0067   1.0000
  25.100   1.7919   0.11974   0.11684  -0.0248   0.0067   1.0000
  25.200   1.7863   0.12176   0.11889  -0.0257   0.0067   1.0000
  25.300   1.7825   0.12353   0.12068  -0.0265   0.0067   1.0000
  25.400   1.7785   0.12533   0.12250  -0.0273   0.0067   1.0000
  25.500   1.7626   0.12906   0.12629  -0.0292   0.0067   1.0000
  25.600   1.7587   0.13087   0.12812  -0.0301   0.0066   1.0000
  25.700   1.7548   0.13270   0.12997  -0.0310   0.0066   1.0000
  25.800   1.7389   0.13650   0.13382  -0.0331   0.0066   1.0000
  25.900   1.7346   0.13841   0.13576  -0.0341   0.0066   1.0000
  26.000   1.7310   0.14022   0.13759  -0.0351   0.0066   1.0000
  26.100   1.7150   0.14412   0.14154  -0.0373   0.0065   1.0000
  26.200   1.7095   0.14625   0.14370  -0.0385   0.0065   1.0000
  26.300   1.7062   0.14800   0.14546  -0.0396   0.0065   1.0000
  26.400   1.7019   0.14990   0.14738  -0.0407   0.0065   1.0000
  26.600   1.6804   0.15602   0.15358  -0.0444   0.0064   1.0000
  26.700   1.6773   0.15780   0.15538  -0.0456   0.0064   1.0000
  26.800   1.6729   0.15982   0.15742  -0.0469   0.0064   1.0000
  27.000   1.6515   0.16616   0.16384  -0.0510   0.0063   1.0000
  27.100   1.6485   0.16798   0.16568  -0.0523   0.0063   1.0000
  27.200   1.6299   0.17270   0.17046  -0.0555   0.0063   1.0000
  27.300   1.6271   0.17452   0.17230  -0.0568   0.0063   1.0000
  27.400   1.6237   0.17644   0.17423  -0.0581   0.0062   1.0000
  27.500   1.6198   0.17848   0.17629  -0.0596   0.0062   1.0000
  27.600   1.6011   0.18339   0.18127  -0.0631   0.0062   1.0000
  27.700   1.5981   0.18529   0.18319  -0.0645   0.0062   1.0000
  27.800   1.5945   0.18731   0.18522  -0.0661   0.0061   1.0000
  27.900   1.5903   0.18946   0.18739  -0.0677   0.0061   1.0000
  28.000   1.5719   0.19450   0.19250  -0.0714   0.0061   1.0000
  28.100   1.5694   0.19632   0.19434  -0.0729   0.0060   1.0000
  28.200   1.5665   0.19821   0.19624  -0.0744   0.0060   1.0000
  28.300   1.5452   0.20385   0.20196  -0.0787   0.0060   1.0000
  28.400   1.5426   0.20573   0.20385  -0.0802   0.0059   1.0000
  28.500   1.5409   0.20742   0.20556  -0.0816   0.0059   1.0000
  28.600   1.5378   0.20943   0.20758  -0.0833   0.0058   1.0000
  28.700   1.5168   0.21536   0.21359  -0.0879   0.0058   1.0000
  28.800   1.5146   0.21722   0.21546  -0.0894   0.0058   1.0000
  28.900   1.5126   0.21907   0.21732  -0.0910   0.0057   1.0000
  29.000   1.5105   0.22094   0.21921  -0.0926   0.0056   1.0000
  29.200   1.4881   0.22890   0.22726  -0.0990   0.0056   1.0000
  29.300   1.4867   0.23066   0.22903  -0.1005   0.0055   1.0000
  29.400   1.4843   0.23264   0.23103  -0.1022   0.0054   1.0000
  29.600   1.4627   0.24078   0.23925  -0.1088   0.0054   1.0000
  29.700   1.4608   0.24272   0.24120  -0.1105   0.0053   1.0000
  29.800   1.4584   0.24480   0.24330  -0.1123   0.0052   1.0000
  30.000   1.4385   0.25286   0.25145  -0.1189   0.0052   1.0000
